13        
Initial atomic coordinates
O    35.723957   32.753435   33.610109
H    35.822957   33.716435   33.715109
C    34.428957   32.506435   33.177109
C    34.020957   31.202435   32.939109
H    34.657957   30.350435   33.163109
C    32.810957   30.925435   32.298109
Cl   32.204957   29.306435   32.177109
C    31.973957   31.893435   31.923109
H    30.990957   31.728435   31.491109
C    32.287957   33.280435   32.231109
H    31.638957   34.080435   31.887109
C    33.547957   33.524435   32.779109
H    33.838957   34.572435   32.794109
