13        
Initial atomic coordinates
O    31.532957   32.149935   36.010609
H    31.970957   32.673935   35.316609
C    31.176957   31.028935   35.344609
C    30.349957   30.011935   35.966609
H    29.864957   30.264935   36.905609
C    30.049957   28.913935   35.206609
Cl   28.998957   27.726935   35.805609
C    30.597957   28.746935   33.928609
H    30.442957   27.755935   33.511609
C    31.395957   29.715935   33.318609
H    31.862957   29.689935   32.336609
C    31.566957   30.879935   34.002609
H    32.068957   31.700935   33.497609
