13        
Initial atomic coordinates
O    33.930957   32.557935   34.429109
H    34.410957   33.355935   34.143109
C    32.903957   32.186935   33.634109
C    32.382957   30.931935   33.869109
H    32.769957   30.287935   34.653109
C    31.482957   30.431935   33.003109
Cl   30.766957   28.891935   33.272109
C    30.993957   31.083935   31.891109
H    30.147957   30.756935   31.293109
C    31.574957   32.312935   31.575109
H    31.235957   32.980935   30.788109
C    32.516957   32.875935   32.430109
H    33.015957   33.810935   32.190109
