13        
Initial atomic coordinates
O    33.215457   31.879435   32.642109
H    33.651457   32.744435   32.540109
C    31.903457   32.021435   32.316109
C    30.942457   31.172435   32.892109
H    31.317457   30.343435   33.485109
C    29.594457   31.445435   32.756109
Cl   28.593457   30.425435   33.729109
C    29.227457   32.521435   31.982109
H    28.167457   32.723435   31.851109
C    30.176457   33.413435   31.414109
H    29.904457   34.236435   30.759109
C    31.520457   33.176435   31.592109
H    32.268457   33.832435   31.154109
