13        
Initial atomic coordinates
O    34.010957   31.745935   33.757109
H    34.493957   32.589935   33.711109
C    32.870957   31.846935   33.052109
C    31.890957   30.877935   33.197109
H    32.128957   30.063935   33.878109
C    30.776957   30.878935   32.362109
Cl   29.646957   29.536935   32.521109
C    30.607957   31.821935   31.391109
H    29.769957   31.807935   30.700109
C    31.544957   32.883935   31.299109
H    31.458957   33.678935   30.564109
C    32.688957   32.871935   32.097109
H    33.517957   33.562935   31.964109
