13        
Initial atomic coordinates
O    33.291957   32.302435   32.665609
H    33.365957   33.158435   33.123609
C    32.031957   31.788435   32.676609
C    31.856957   30.563435   33.267609
H    32.707957   30.066435   33.726609
C    30.568957   30.072435   33.297609
Cl   30.483957   28.613435   34.260609
C    29.493957   30.767435   32.726609
H    28.493957   30.385435   32.919609
C    29.721957   32.028435   32.185609
H    28.932957   32.625435   31.734609
C    30.993957   32.526435   32.158609
H    31.207957   33.516435   31.765609
