13        
Initial atomic coordinates
O    31.869957   31.897935   36.116109
H    32.057957   32.693935   35.587109
C    31.859957   30.749935   35.367109
C    31.183957   29.631935   35.719109
H    30.639957   29.625935   36.659109
C    31.103957   28.571935   34.859109
Cl   30.062957   27.228934   35.166109
C    31.767957   28.584935   33.622109
H    31.745957   27.663935   33.045109
C    32.619957   29.691935   33.402109
H    33.173957   29.610935   32.471109
C    32.521957   30.827935   34.149109
H    33.157957   31.695935   33.997109
