13        
Initial atomic coordinates
O    31.649457   30.942935   35.911109
H    32.186457   31.593935   35.426109
C    31.646457   29.782935   35.192109
C    30.755457   28.706935   35.501109
H    30.039457   28.930935   36.287109
C    30.623457   27.630935   34.650109
Cl   29.407457   26.530934   35.000109
C    31.433457   27.542935   33.492109
H    31.431457   26.673934   32.838109
C    32.384457   28.523935   33.267109
H    33.080457   28.578935   32.434109
C    32.518457   29.625935   34.137109
H    33.180457   30.414935   33.792109
