13        
Initial atomic coordinates
O    31.971957   31.861935   36.846609
H    32.411957   32.593935   36.378609
C    31.714957   30.850935   36.043609
C    30.953957   29.789935   36.481609
H    30.563957   29.845935   37.494609
C    30.915957   28.508935   35.817609
Cl   29.971957   27.254934   36.491609
C    31.610957   28.417935   34.657609
H    31.799957   27.423935   34.262609
C    32.273957   29.475935   34.145609
H    32.780957   29.407935   33.185609
C    32.388957   30.667935   34.837609
H    32.952957   31.457935   34.348609
