13        
Initial atomic coordinates
O    31.058957   32.251435   35.835609
H    31.371957   32.960435   35.245609
C    30.978957   31.117435   35.098609
C    30.438957   29.985435   35.680609
H    30.059957   30.085435   36.694609
C    30.398957   28.811435   34.971609
Cl   29.754957   27.447435   35.805609
C    30.901957   28.764435   33.690609
H    30.812957   27.867435   33.083609
C    31.498957   29.872435   33.078609
H    32.028957   29.815435   32.131609
C    31.481957   31.055435   33.818609
H    32.036957   31.922435   33.469609
