13        
Initial atomic coordinates
O    32.047457   32.906435   34.981609
H    32.962457   32.894435   34.651609
C    31.545457   31.653435   34.583609
C    30.508457   31.097435   35.231609
H    30.008457   31.599435   36.055609
C    30.146457   29.772435   35.023609
Cl   28.829457   29.099435   35.921609
C    30.834457   29.016435   34.130609
H    30.555457   27.968435   34.062609
C    31.833457   29.643435   33.349609
H    32.348457   29.076435   32.577609
C    32.235457   30.934435   33.580609
H    32.955457   31.369435   32.892609
