13        
Initial atomic coordinates
O    34.041957   33.117935   32.101109
H    34.309957   33.294935   33.020109
C    32.866957   32.380935   32.173109
C    32.712957   31.256935   33.046109
H    33.618957   31.023935   33.600109
C    31.464957   30.705935   33.120109
Cl   31.269957   29.411935   34.175109
C    30.413957   31.233935   32.429109
H    29.507957   30.660935   32.608109
C    30.555957   32.242935   31.448109
H    29.712957   32.633935   30.883109
C    31.846957   32.817935   31.318109
H    32.048957   33.622935   30.616109
