13        
Initial atomic coordinates
O    35.444457   32.213435   33.833609
H    35.936457   32.939435   33.409609
C    34.220457   31.969435   33.265609
C    33.372457   30.924435   33.785609
H    33.520457   30.478435   34.765609
C    32.103457   30.694435   33.306609
Cl   31.133457   29.370435   33.911609
C    31.550457   31.489435   32.324609
H    30.571457   31.298435   31.892609
C    32.369457   32.477435   31.764609
H    31.975457   33.170435   31.027609
C    33.706457   32.713435   32.172609
H    34.379457   33.494435   31.825609
