13        
Initial atomic coordinates
O    31.777957   32.673435   34.612609
H    32.301957   33.340435   34.132609
C    31.875957   31.431435   34.065609
C    31.461957   30.307435   34.780609
H    31.061957   30.324435   35.791609
C    31.437957   29.047435   34.083609
Cl   30.423957   27.812435   34.715609
C    32.032957   28.965435   32.825609
H    32.047957   28.003435   32.319609
C    32.385957   30.090435   32.157609
H    32.580957   29.921435   31.102609
C    32.313957   31.314435   32.755609
H    32.626957   32.172435   32.166609
