13        
Initial atomic coordinates
O    31.677457   31.853435   36.160109
H    32.091457   32.515435   35.577109
C    31.393457   30.734435   35.470109
C    30.643457   29.683435   36.153109
H    30.122457   29.863435   37.089109
C    30.652457   28.469435   35.543109
Cl   29.654457   27.180434   36.285109
C    31.339457   28.194435   34.354109
H    31.228457   27.230434   33.865109
C    32.007457   29.172435   33.771109
H    32.545457   29.018435   32.839109
C    32.133457   30.399435   34.346109
H    32.753457   31.181435   33.913109
