13        
Initial atomic coordinates
O    33.510457   34.166435   31.884609
H    33.972457   33.983435   32.721609
C    32.399457   33.329435   31.913609
C    32.267457   32.256435   32.812609
H    33.035457   32.016435   33.542609
C    31.063457   31.535435   32.851609
Cl   30.946457   30.294435   34.029609
C    29.934457   31.889435   32.075609
H    28.977457   31.375435   32.111609
C    30.044457   32.945435   31.209609
H    29.196457   33.254435   30.602609
C    31.245457   33.657435   31.144609
H    31.366457   34.495435   30.464609
