13        
Initial atomic coordinates
O    30.658957   31.155435   35.855109
H    31.153957   31.816435   35.339109
C    30.364957   30.081435   35.029109
C    29.305957   29.269435   35.390109
H    28.654957   29.419435   36.248109
C    29.177957   28.099435   34.644109
Cl   27.992957   26.989434   35.158109
C    30.065957   27.814435   33.576109
H    29.889957   26.878434   33.052109
C    31.066957   28.681435   33.238109
H    31.737957   28.560435   32.391109
C    31.221957   29.841435   33.935109
H    32.029957   30.544435   33.750109
