13        
Initial atomic coordinates
O    32.904457   32.853935   32.736109
H    33.560457   32.578935   33.401109
C    31.768457   32.133935   32.850109
C    31.713457   31.075935   33.734109
H    32.611457   30.878935   34.315109
C    30.436457   30.477935   34.015109
Cl   30.378457   29.517935   35.435109
C    29.320457   30.837935   33.333109
H    28.325457   30.527935   33.641109
C    29.347457   31.973935   32.500109
H    28.399457   32.421935   32.210109
C    30.591457   32.577935   32.243109
H    30.621457   33.562935   31.783109
