13        
Initial atomic coordinates
O    33.228457   32.792435   32.143609
H    33.933457   32.413435   32.699609
C    32.088457   32.053435   32.331609
C    32.087457   30.905435   33.103609
H    32.957457   30.540435   33.641609
C    30.905457   30.098435   33.218609
Cl   30.913457   28.706435   34.304609
C    29.732457   30.508435   32.541609
H    28.802457   30.000435   32.782609
C    29.767457   31.701435   31.835609
H    28.924457   32.013435   31.223609
C    30.910457   32.450435   31.685609
H    30.972457   33.301435   31.012609
