13        
Initial atomic coordinates
O    31.336957   31.397935   36.012109
H    31.998957   31.991935   35.616109
C    31.408957   30.106935   35.610109
C    30.696957   29.177935   36.293109
H    30.115957   29.510935   37.150109
C    30.638957   27.864935   35.808109
Cl   29.511957   26.684934   36.506109
C    31.462957   27.523935   34.746109
H    31.400957   26.560934   34.247109
C    32.376957   28.458935   34.226109
H    32.895957   28.212935   33.303109
C    32.317957   29.731935   34.698109
H    32.936957   30.523935   34.284109
