13        
Initial atomic coordinates
O    31.759457   32.992435   32.182609
H    32.477457   32.695435   32.769609
C    30.591457   32.328435   32.569609
C    30.587457   31.313435   33.524609
H    31.483457   30.878435   33.961609
C    29.336457   30.771435   33.886609
Cl   29.483457   29.473435   34.985609
C    28.203457   31.234435   33.369609
H    27.237457   30.892435   33.732609
C    28.203457   32.282435   32.549609
H    27.261457   32.644435   32.144609
C    29.428457   32.836435   32.069609
H    29.390457   33.639435   31.338609
