13        
Initial atomic coordinates
O    34.011957   32.873935   33.511609
H    34.375957   33.747935   33.278609
C    32.861957   32.770935   32.955609
C    32.023957   31.704935   33.212609
H    32.314957   30.963935   33.951609
C    30.790957   31.528935   32.598609
Cl   29.967957   30.011935   32.868609
C    30.297957   32.519935   31.739609
H    29.266957   32.483935   31.398609
C    31.121957   33.625935   31.528609
H    30.716957   34.495935   31.018609
C    32.366957   33.727935   32.080609
H    32.949957   34.610935   31.830609
