13        
Initial atomic coordinates
O    34.636957   32.562435   32.966109
H    34.768957   33.525435   32.905109
C    33.363957   32.273435   32.532109
C    32.910957   30.987435   32.587109
H    33.567957   30.200435   32.945109
C    31.587957   30.676435   32.300109
Cl   31.123957   29.030435   32.330109
C    30.728957   31.615435   31.746109
H    29.720957   31.417435   31.394109
C    31.208957   32.924435   31.668109
H    30.565957   33.580435   31.088109
C    32.485957   33.237435   32.082109
H    32.853957   34.259435   32.043109
