13        
Initial atomic coordinates
O    32.832957   32.251435   36.252609
H    33.141957   32.961435   35.662609
C    32.690957   31.039435   35.677609
C    31.775957   30.100435   36.169609
H    31.086957   30.289435   36.988609
C    31.622957   28.912435   35.438609
Cl   30.516957   27.657435   35.978609
C    32.259957   28.666435   34.298609
H    32.040957   27.711435   33.825609
C    33.233957   29.524435   33.819609
H    33.776957   29.411435   32.885609
C    33.411957   30.703435   34.587609
H    34.064957   31.421435   34.098609
