14        
Initial atomic coordinates
O    34.085591   32.464918   34.735130
H    34.890591   32.672918   34.229130
C    33.728591   31.131918   34.580130
C    32.918591   30.643918   35.592130
H    32.597591   31.318918   36.381130
C    32.715591   29.316918   35.709130
H    32.135591   28.924918   36.540130
C    33.345591   28.395918   34.804130
H    33.328591   27.321918   34.966130
C    34.049591   28.919918   33.771130
H    34.520591   28.273918   33.034130
C    34.323591   30.288918   33.672130
O    35.253591   30.728918   32.693130
H    35.148591   31.687918   32.561130
