14        
Initial atomic coordinates
O    34.301591   32.937918   36.343630
H    35.152591   33.270918   36.004630
C    33.988591   31.628918   35.943630
C    33.312591   30.801918   36.816630
H    32.959591   31.208918   37.760630
C    33.065591   29.468918   36.443630
H    32.636591   28.731918   37.116630
C    33.429591   29.030918   35.190630
H    33.215591   27.989918   34.966630
C    34.042591   29.912918   34.255630
H    34.325591   29.497918   33.290630
C    34.362591   31.185918   34.667630
O    34.979591   31.998918   33.751630
H    35.256591   32.819918   34.193630
