14        
Initial atomic coordinates
O    33.605591   32.833918   36.171130
H    34.241591   33.136918   35.498130
C    33.063591   31.561918   35.895130
C    32.267591   30.918918   36.874130
H    32.141591   31.350918   37.863130
C    31.654591   29.744918   36.573130
H    31.043591   29.327918   37.369130
C    31.883591   29.109918   35.328130
H    31.435591   28.133918   35.157130
C    32.735591   29.717918   34.383130
H    32.845591   29.200918   33.433130
C    33.356591   30.957918   34.655130
O    34.084591   31.616918   33.604130
H    34.294591   32.512918   33.925130
