14        
Initial atomic coordinates
O    32.152591   34.012418   37.623630
H    32.848591   34.692418   37.641630
C    32.474591   32.794418   37.081630
C    31.679591   31.757418   37.458630
H    31.003591   31.950418   38.287631
C    31.821591   30.497418   36.847630
H    31.195591   29.702418   37.242630
C    32.702591   30.289418   35.787630
H    32.947591   29.346418   35.304630
C    33.538591   31.355418   35.478630
H    34.189591   31.397418   34.608630
C    33.459591   32.568418   36.137630
O    34.230591   33.608418   35.730630
H    33.907591   34.472418   36.045630
