14        
Initial atomic coordinates
O    33.301091   32.045418   35.339130
H    34.056091   32.257418   34.760130
C    32.842091   30.779418   35.156130
C    32.106091   30.150418   36.144130
H    31.872091   30.646418   37.082130
C    31.783091   28.810418   35.957130
H    31.316091   28.230418   36.749130
C    32.105091   28.044418   34.850130
H    32.065091   26.958418   34.882130
C    32.825091   28.672418   33.845130
H    33.282091   28.179418   32.991130
C    33.238091   30.010418   34.017130
O    34.032091   30.593418   33.003130
H    34.177091   31.543418   33.168130
