14        
Initial atomic coordinates
O    32.759091   31.850918   36.369630
H    33.435091   32.339918   35.865630
C    32.403091   30.593918   35.851630
C    31.565091   29.880918   36.698630
H    31.243091   30.389918   37.603630
C    31.044091   28.692918   36.280630
H    30.418091   28.117918   36.958630
C    31.453091   28.100918   35.036630
H    31.122091   27.079918   34.870630
C    32.295091   28.832918   34.220630
H    32.795091   28.370918   33.373630
C    32.831091   30.081918   34.621630
O    33.658091   30.702918   33.775630
H    33.910091   31.533918   34.216630
