14        
Initial atomic coordinates
O    33.226591   32.767418   36.448130
H    33.918591   33.285418   36.000130
C    33.031591   31.519418   35.994130
C    32.202591   30.692418   36.750130
H    31.681591   31.078418   37.623130
C    32.051591   29.407418   36.364130
H    31.398591   28.725418   36.902130
C    32.721591   28.852418   35.308130
H    32.613591   27.828418   34.958130
C    33.433591   29.702418   34.478130
H    33.941591   29.296418   33.606130
C    33.632591   31.037418   34.740130
O    34.354591   31.863418   33.878130
H    34.762591   32.657418   34.267130
