14        
Initial atomic coordinates
O    32.951591   33.075918   35.556630
H    33.923591   33.012918   35.528630
C    32.432591   31.791918   35.352630
C    31.288591   31.437918   36.008630
H    30.922591   32.113918   36.777630
C    30.727591   30.231918   35.826630
H    29.730591   30.119918   36.244630
C    31.355591   29.285918   34.985630
H    30.743591   28.416918   34.756630
C    32.459591   29.657918   34.256630
H    32.881591   29.033918   33.472630
C    33.017591   30.928918   34.382630
O    34.152591   31.216918   33.646630
H    34.550591   32.060918   33.928630
