14        
Initial atomic coordinates
O    33.191091   32.431418   35.694630
H    33.743091   32.955418   35.088630
C    32.890091   31.201418   35.234630
C    31.983091   30.448418   36.001630
H    31.904091   30.821418   37.019630
C    31.457091   29.292418   35.524630
H    30.870091   28.584418   36.103630
C    31.810091   28.928418   34.259630
H    31.547091   27.910418   33.981630
C    32.739091   29.642418   33.509630
H    33.024091   29.250418   32.536630
C    33.346091   30.738418   34.018630
O    34.078091   31.458418   33.154630
H    34.220091   32.378418   33.438630
