14        
Initial atomic coordinates
O    32.701591   32.527418   34.639130
H    33.532591   32.958418   34.368130
C    32.628591   31.316418   34.099130
C    32.005591   30.275418   34.773130
H    31.413591   30.551418   35.643130
C    32.100591   28.983418   34.294130
H    31.645591   28.204418   34.900130
C    32.865591   28.774418   33.173130
H    33.040591   27.766418   32.802130
C    33.469591   29.816418   32.406130
H    34.108591   29.667418   31.539130
C    33.313591   31.117418   32.877130
O    33.855591   32.171418   32.106130
H    33.582591   33.018418   32.503130
