14        
Initial atomic coordinates
O    34.195091   33.295918   35.733630
H    34.737091   33.621918   34.992630
C    33.582091   32.109918   35.476630
C    32.723091   31.593918   36.468630
H    32.547091   32.184918   37.364630
C    32.084091   30.344918   36.277630
H    31.334091   30.130918   37.034630
C    32.360091   29.522918   35.202630
H    31.893091   28.545918   35.116630
C    33.297091   30.022918   34.252630
H    33.569091   29.391918   33.409630
C    33.939091   31.238918   34.329630
O    34.907091   31.570918   33.441630
H    35.135091   32.502918   33.605630
