14        
Initial atomic coordinates
O    33.558591   32.859918   35.381630
H    34.213591   33.246918   34.774630
C    33.326591   31.519918   35.064630
C    32.851591   30.820918   36.169630
H    32.885591   31.302918   37.142630
C    32.608591   29.443918   36.001630
H    32.255591   28.782918   36.788630
C    32.794591   28.879918   34.757630
H    32.533591   27.839918   34.578630
C    33.253591   29.647918   33.657630
H    33.257591   29.185918   32.673630
C    33.531591   30.950918   33.826630
O    33.948591   31.671918   32.703630
H    34.339591   32.533918   32.932630
