14        
Initial atomic coordinates
O    34.121591   32.698918   35.931630
H    35.035591   32.831918   35.617630
C    33.739591   31.420918   35.768630
C    32.808591   30.799918   36.642630
H    32.373591   31.478918   37.369630
C    32.434591   29.447918   36.489630
H    31.712591   29.046918   37.195630
C    32.871591   28.699918   35.353630
H    32.508591   27.681918   35.225630
C    33.864591   29.257918   34.606630
H    34.466591   28.705918   33.890630
C    34.266591   30.582918   34.784630
O    35.114591   30.983918   33.845630
H    35.415591   31.840918   34.199630
