14        
Initial atomic coordinates
O    33.783591   32.204418   34.919630
H    34.508591   32.796418   34.651630
C    33.794591   30.914418   34.371630
C    32.979591   29.915418   34.899630
H    32.341591   30.174418   35.741630
C    32.985591   28.647418   34.349630
H    32.363591   27.845418   34.738630
C    33.888591   28.318418   33.292630
H    33.809591   27.351418   32.803630
C    34.751591   29.339418   32.825630
H    35.409591   29.087418   31.997630
C    34.663591   30.620418   33.342630
O    35.519591   31.565418   32.697630
H    35.407591   32.377418   33.225630
