14        
Initial atomic coordinates
O    34.048091   32.470418   34.000130
H    34.627091   32.733418   33.262130
C    33.764091   31.152418   34.088130
C    33.085091   30.629418   35.178130
H    32.876091   31.291418   36.014130
C    32.470091   29.383418   35.106130
H    31.990091   28.962418   35.986130
C    32.507091   28.599418   33.997130
H    32.202091   27.563418   34.120130
C    33.213091   29.092418   32.908130
H    33.388091   28.495418   32.016130
C    33.910091   30.332418   32.926130
O    34.606091   30.687418   31.836130
H    34.895091   31.614418   31.918130
