14        
Initial atomic coordinates
O    34.509091   33.351418   34.623630
H    35.093091   33.672418   33.913630
C    34.047091   32.080418   34.389630
C    32.973091   31.676418   35.175630
H    32.366091   32.383418   35.734630
C    32.546091   30.361418   35.200630
H    31.842091   29.983418   35.938630
C    33.211091   29.460418   34.369630
H    32.954091   28.405418   34.370630
C    34.112091   29.838418   33.434630
H    34.643091   29.140418   32.791630
C    34.568091   31.185418   33.484630
O    35.505091   31.523418   32.582630
H    35.723091   32.472418   32.589630
