14        
Initial atomic coordinates
O    33.706091   32.153918   36.206130
H    34.465091   32.452918   35.674130
C    33.256091   30.978918   35.745130
C    32.274091   30.314918   36.431130
H    31.924091   30.643918   37.407130
C    31.703091   29.154918   35.876130
H    30.904091   28.629918   36.392130
C    32.302091   28.561918   34.799130
H    31.960091   27.599918   34.425130
C    33.412091   29.148918   34.128130
H    33.861091   28.647918   33.274130
C    33.845091   30.384918   34.604130
O    34.951091   31.040918   33.967130
H    35.302091   31.879918   34.318130
