14        
Initial atomic coordinates
O    32.702591   32.783918   36.116630
H    33.259591   33.149918   35.405630
C    32.388591   31.486918   35.821630
C    31.470591   30.780918   36.682630
H    31.001591   31.359918   37.474630
C    31.081591   29.519918   36.302630
H    30.256591   29.054918   36.835630
C    31.693591   28.845918   35.248630
H    31.441591   27.820918   34.991630
C    32.608591   29.482918   34.413630
H    32.960591   29.043918   33.483630
C    32.801591   30.885918   34.628630
O    33.604591   31.561918   33.836630
H    33.380591   32.507918   33.760630
