14        
Initial atomic coordinates
O    32.595591   33.213418   37.380630
H    33.247591   33.663418   36.817630
C    32.339591   31.995418   36.805630
C    31.694591   31.121418   37.717630
H    31.537591   31.431418   38.747631
C    31.416591   29.827418   37.222630
H    30.772591   29.172418   37.802630
C    31.915591   29.366418   35.999630
H    31.723591   28.353418   35.655630
C    32.611591   30.178418   35.116630
H    32.828591   29.822418   34.113630
C    32.742591   31.541418   35.508630
O    33.338591   32.385418   34.625630
H    33.612591   33.180418   35.115630
