14        
Initial atomic coordinates
O    32.868591   32.297918   34.800630
H    33.335591   32.243918   35.652630
C    32.368591   31.041918   34.560630
C    31.828591   30.265918   35.602630
H    31.710591   30.597918   36.631630
C    31.432591   28.975918   35.317630
H    31.022591   28.342918   36.100630
C    31.433591   28.449918   34.022630
H    31.040591   27.450918   33.854630
C    31.872591   29.250918   32.985630
H    31.799591   28.850918   31.977630
C    32.394591   30.537918   33.198630
O    33.067591   31.228918   32.249630
H    33.713591   31.872918   32.589630
