14        
Initial atomic coordinates
O    32.315091   33.513918   36.532130
H    32.981091   33.977918   35.995130
C    32.050091   32.211918   36.079130
C    31.269091   31.389918   36.914130
H    31.002091   31.750918   37.903130
C    31.032091   30.068918   36.615130
H    30.421091   29.516918   37.325130
C    31.471091   29.520918   35.418130
H    31.188091   28.488918   35.225130
C    32.360091   30.296918   34.577130
H    32.731091   29.848918   33.657130
C    32.670091   31.643918   34.986130
O    33.553091   32.387918   34.268130
H    33.707091   33.313918   34.529130
