14        
Initial atomic coordinates
O    32.705591   33.512418   35.913630
H    33.562591   33.870418   35.621630
C    32.684591   32.193418   35.585630
C    31.728591   31.435418   36.276630
H    31.088591   31.906418   37.018630
C    31.706591   30.097418   35.962630
H    30.927591   29.461418   36.376630
C    32.539591   29.493418   35.025630
H    32.354591   28.458418   34.743630
C    33.459591   30.295418   34.337630
H    34.126591   29.813418   33.626630
C    33.481591   31.634418   34.538630
O    34.401591   32.360418   33.818630
H    34.393591   33.318418   33.992630
