13        
Initial atomic coordinates
C    29.922991   29.370503   34.817481
H    29.635991   29.710503   35.808481
C    29.646991   28.057503   34.380481
H    29.028991   27.370503   34.954481
C    30.101991   27.622503   33.133481
H    29.807991   26.612503   32.858481
C    30.955991   28.409503   32.408481
H    31.287991   28.055503   31.435481
C    31.293991   29.706503   32.863481
H    31.980991   30.267503   32.234481
C    30.722991   30.175503   34.080481
O    30.993991   31.516503   34.333481
H    31.676991   31.853503   33.726481
