13        
Initial atomic coordinates
C    30.615491   31.177003   35.796481
H    31.172491   31.942003   36.331481
C    29.938491   30.366003   36.722481
H    30.051491   30.558003   37.787481
C    29.195491   29.288003   36.260481
H    28.632491   28.625003   36.911481
C    29.160491   29.123003   34.861481
H    28.647491   28.287003   34.395481
C    29.817491   29.996003   33.988481
H    29.764491   29.716003   32.940481
C    30.541491   31.044003   34.446481
O    31.142491   31.932003   33.613481
H    31.339491   32.807004   33.994481
