13        
Initial atomic coordinates
C    31.759991   30.968003   35.195981
H    32.039991   31.774003   35.867981
C    30.752991   30.093003   35.635981
H    30.153991   30.329003   36.512981
C    30.429991   28.938003   34.960981
H    29.663991   28.245003   35.297981
C    31.072991   28.670003   33.779981
H    30.847991   27.806003   33.158981
C    32.103991   29.496003   33.294981
H    32.708991   29.248003   32.425981
C    32.471991   30.661003   34.027981
O    33.556992   31.407003   33.640981
H    33.331992   32.349004   33.746981
