13        
Initial atomic coordinates
C    31.119491   30.363003   34.785981
H    31.359491   31.406003   34.971981
C    30.162491   29.736003   35.601981
H    29.565491   30.327003   36.291981
C    29.841491   28.420003   35.305981
H    28.988491   28.059003   35.875981
C    30.477491   27.691003   34.296981
H    30.182491   26.650003   34.188981
C    31.428491   28.238003   33.550981
H    31.909491   27.742003   32.711981
C    31.790491   29.538003   33.826981
O    32.817492   29.939003   33.114981
H    33.053492   30.838003   33.406981
