13        
Initial atomic coordinates
C    30.266991   30.278003   34.686981
H    30.423991   31.319003   34.958981
C    29.337991   29.574003   35.421981
H    28.819991   29.991003   36.281981
C    29.051991   28.287003   35.040981
H    28.348991   27.789003   35.703981
C    29.709991   27.626003   34.074981
H    29.416991   26.622003   33.774981
C    30.687991   28.335003   33.349981
H    31.216991   27.851003   32.532981
C    30.887991   29.678003   33.582981
O    31.911991   30.219003   32.769981
H    32.168991   31.046003   33.214981
