13        
Initial atomic coordinates
C    31.735491   31.580503   35.394981
H    32.072491   32.610504   35.475981
C    30.938491   31.166503   36.381981
H    30.683491   31.844503   37.191981
C    30.338491   29.913503   36.351981
H    29.581491   29.645503   37.084981
C    30.605491   29.002503   35.324981
H    30.097491   28.046503   35.225981
C    31.529491   29.437503   34.362981
H    31.910491   28.722503   33.637981
C    32.030491   30.726503   34.298981
O    32.900492   31.201503   33.329981
H    33.274492   32.041503   33.652981
