13        
Initial atomic coordinates
C    29.088491   30.006003   36.822481
H    28.715491   30.541003   37.692481
C    28.632491   28.706003   36.491481
H    27.913491   28.118003   37.054481
C    29.048491   28.121003   35.320481
H    28.754491   27.095003   35.114481
C    29.866491   28.840003   34.462481
H    30.155491   28.378003   33.522481
C    30.267491   30.104003   34.737481
H    30.777491   30.738003   34.017481
C    29.819491   30.696003   35.893481
O    30.025491   32.038003   36.087481
H    30.821491   32.350004   35.620481
