13        
Initial atomic coordinates
C    30.361491   30.047503   36.014481
H    30.006491   30.683503   36.821481
C    29.881491   28.774503   35.817481
H    29.075491   28.382503   36.432481
C    30.361491   27.916503   34.820481
H    29.936491   26.933503   34.634481
C    31.367491   28.445503   34.020481
H    31.769491   28.007503   33.110481
C    31.807491   29.776503   34.185481
H    32.569491   30.145503   33.503481
C    31.303491   30.581503   35.189481
O    31.662491   31.917503   35.236481
H    32.620491   31.934503   35.057481
