13        
Initial atomic coordinates
C    29.300491   29.878503   35.399481
H    28.716491   30.391503   36.159481
C    28.877491   28.571503   35.139481
H    28.108491   28.102503   35.746481
C    29.596491   27.745503   34.241481
H    29.352491   26.687503   34.174481
C    30.635491   28.259503   33.557481
H    31.314491   27.720503   32.901481
C    31.054491   29.569503   33.782481
H    31.937491   29.986503   33.304481
C    30.418491   30.377503   34.729481
O    30.917491   31.592503   35.057481
H    31.694491   31.883503   34.548481
