13        
Initial atomic coordinates
C    31.346491   31.981503   35.086981
H    31.727491   32.918504   35.484981
C    30.354491   31.248503   35.688981
H    29.835491   31.615503   36.571981
C    29.944491   30.029503   35.139981
H    29.177491   29.519503   35.716981
C    30.621491   29.421503   34.134981
H    30.314491   28.424503   33.831981
C    31.766491   30.025503   33.625981
H    32.401491   29.485503   32.928981
C    32.085491   31.259503   34.113981
O    33.187492   31.849503   33.616981
H    33.168492   32.740504   34.007981
