13        
Initial atomic coordinates
C    30.309491   30.898003   35.437481
H    30.545491   31.926003   35.701481
C    29.459491   30.183003   36.199481
H    28.967491   30.623003   37.063481
C    29.221491   28.826003   35.933481
H    28.668491   28.222003   36.647481
C    29.763491   28.316003   34.716481
H    29.441491   27.299003   34.508481
C    30.673491   29.016003   33.918481
H    31.160491   28.528003   33.078481
C    30.948491   30.299003   34.350481
O    31.807491   31.009003   33.569481
H    31.634491   31.964003   33.643481
