13        
Initial atomic coordinates
C    31.139991   31.370003   34.728981
H    31.340991   32.423004   34.911981
C    30.047991   30.783003   35.371981
H    29.364991   31.398003   35.952981
C    29.780991   29.418003   35.266981
H    28.875991   28.962003   35.661981
C    30.673991   28.576003   34.599981
H    30.489991   27.506003   34.574981
C    31.788991   29.176003   34.004981
H    32.571991   28.552003   33.579981
C    31.988991   30.541003   34.014981
O    33.130992   31.066003   33.372981
H    33.311992   31.981003   33.655981
