13        
Initial atomic coordinates
C    31.415491   30.222503   33.889481
H    31.858491   31.205503   34.029481
C    30.470491   29.633503   34.680481
H    30.041491   30.093503   35.567481
C    30.053491   28.291503   34.444481
H    29.189491   27.897503   34.974481
C    30.603491   27.630503   33.346481
H    30.258491   26.649503   33.029481
C    31.493491   28.228503   32.497481
H    31.691491   27.785503   31.524481
C    31.947491   29.574503   32.777481
O    32.823491   30.114503   31.937481
H    33.448492   30.722503   32.370481
