13        
Initial atomic coordinates
C    31.037491   30.296503   35.518981
H    31.692491   31.017503   35.997981
C    30.084491   29.654503   36.286981
H    29.820491   29.972503   37.291981
C    29.395491   28.607503   35.806981
H    28.528491   28.241503   36.351981
C    29.528491   28.162503   34.507981
H    28.860491   27.367503   34.185981
C    30.446491   28.798503   33.655981
H    30.524491   28.461503   32.625981
C    31.283491   29.831503   34.240981
O    32.079491   30.460503   33.370981
H    32.159491   31.385503   33.664981
