13        
Initial atomic coordinates
C    30.384491   29.932503   34.445481
H    30.064491   30.583503   35.254481
C    29.802491   28.713503   34.195481
H    29.009491   28.267503   34.791481
C    30.287491   27.777503   33.294481
H    29.936491   26.758503   33.163481
C    31.450491   28.159503   32.604481
H    31.850491   27.497503   31.839481
C    32.099491   29.395503   32.810481
H    32.877492   29.703503   32.116481
C    31.514491   30.272503   33.650481
O    32.114491   31.505503   33.816481
H    32.918492   31.676503   33.293481
