13        
Initial atomic coordinates
C    29.587991   29.238003   36.241981
H    29.063991   29.548003   37.142981
C    29.250991   27.964003   35.824981
H    28.775991   27.284003   36.526981
C    29.877991   27.429003   34.706981
H    29.689991   26.394003   34.429981
C    30.704991   28.212003   33.917981
H    30.958991   27.742003   32.971981
C    30.966991   29.490003   34.276981
H    31.552991   30.101003   33.594981
C    30.357991   30.037003   35.366981
O    30.582991   31.281003   35.828981
H    31.410991   31.578003   35.408981
