13        
Initial atomic coordinates
C    29.019991   28.871003   34.567481
H    28.483991   29.332003   35.393481
C    28.772991   27.590003   34.148481
H    27.958991   27.014003   34.581481
C    29.529991   26.953003   33.189481
H    29.361991   25.908003   32.936481
C    30.524991   27.681003   32.620481
H    31.193991   27.225003   31.895481
C    30.767991   29.060003   32.956481
H    31.562991   29.585003   32.432481
C    30.056991   29.617003   33.952481
O    30.403991   30.836003   34.463481
H    31.317991   31.058003   34.206481
