13        
Initial atomic coordinates
C    29.343491   30.266503   35.658981
H    28.924491   30.862503   36.465981
C    29.008491   28.860503   35.613981
H    28.183491   28.493503   36.217981
C    29.607491   27.997503   34.753981
H    29.201491   26.989503   34.733981
C    30.659491   28.442503   33.958981
H    31.116491   27.654503   33.364981
C    31.084491   29.769503   34.084981
H    31.829491   30.181503   33.409981
C    30.385491   30.676503   34.867981
O    30.844491   31.948503   34.903981
H    31.627491   32.163503   34.365981
