13        
Initial atomic coordinates
C    31.295991   30.834003   35.219481
H    31.405991   31.873003   35.516481
C    30.668991   29.927003   36.040481
H    30.489991   30.315003   37.040481
C    30.284991   28.656003   35.682481
H    29.869991   27.981003   36.426481
C    30.648991   28.244003   34.434481
H    30.531991   27.227003   34.068481
C    31.331991   29.092003   33.559481
H    31.645991   28.715003   32.589481
C    31.645991   30.402003   33.962481
O    32.317991   31.153003   33.096481
H    32.266991   32.067003   33.428481
