15        
Initial atomic coordinates
C    32.360989   30.538463   34.063093
H    32.594989   30.067463   33.113093
C    32.945990   31.764463   34.354093
H    33.645990   32.224463   33.659093
C    32.637989   32.412463   35.527093
H    32.881990   33.465463   35.646093
C    31.711989   31.796463   36.422093
H    31.372989   32.379463   37.274093
C    31.280989   30.481463   36.256093
H    30.674989   29.950463   36.986093
C    31.587989   29.898463   35.032093
C    31.181989   28.440463   34.771093
H    31.876989   27.968463   34.072093
H    31.314989   27.897463   35.709093
H    30.143989   28.319463   34.454093
