15        
Initial atomic coordinates
C    32.831489   30.014463   33.368093
H    32.765489   29.180463   32.675093
C    33.794490   30.931463   33.139093
H    34.422490   30.915463   32.252093
C    33.981490   31.988463   34.002093
H    34.680490   32.780463   33.746093
C    33.143490   32.142463   35.145093
H    33.149490   33.037463   35.761093
C    32.200489   31.175463   35.363093
H    31.456489   31.271463   36.149093
C    31.968489   30.120463   34.471093
C    31.004489   28.913463   34.747093
H    31.307489   27.934463   34.369093
H    30.898489   28.852463   35.831093
H    30.017489   29.172463   34.356093
