15        
Initial atomic coordinates
C    32.697989   30.162463   36.004593
H    32.823990   31.082463   36.569593
C    31.896989   29.100463   36.475593
H    31.473989   29.113463   37.476593
C    31.598989   27.990463   35.675593
H    30.935989   27.202463   36.026593
C    32.275989   27.839463   34.485593
H    32.035989   27.020463   33.813593
C    32.995990   28.916463   33.963593
H    33.479990   28.924463   32.990593
C    33.223990   30.088463   34.736593
C    34.171990   31.180463   34.343593
H    33.694990   32.131463   34.100593
H    34.918990   31.426463   35.100593
H    34.620990   30.929463   33.379593
