15        
Initial atomic coordinates
C    31.428989   28.520963   33.637593
H    30.993989   27.975963   32.802593
C    32.164989   29.664963   33.336593
H    32.335989   29.972963   32.308593
C    32.786989   30.379963   34.366593
H    33.456990   31.210963   34.164593
C    32.433989   30.098963   35.642593
H    32.677989   30.705963   36.510593
C    31.544989   28.987963   35.924593
H    31.297989   28.801963   36.966593
C    31.163989   28.107963   34.933593
C    30.441989   26.798963   35.301593
H    31.147989   26.007963   35.039593
H    30.060989   26.799963   36.324593
H    29.471989   26.715963   34.804593
