15        
Initial atomic coordinates
C    31.125989   31.942463   35.644093
H    30.720989   32.837463   36.110093
C    30.538989   30.651463   35.858093
H    29.671989   30.465463   36.487093
C    31.058989   29.537463   35.246093
H    30.548989   28.578463   35.267093
C    32.111989   29.698463   34.357093
H    32.304989   28.819463   33.747093
C    32.692989   30.947463   34.160093
H    33.486990   31.080463   33.430093
C    32.212989   32.054463   34.740093
C    32.799989   33.386463   34.313093
H    32.145989   34.235463   34.525093
H    33.724990   33.464463   34.887093
H    33.129990   33.475463   33.275093
