15        
Initial atomic coordinates
C    32.993490   30.297963   35.401593
H    33.339490   29.773963   34.513593
C    33.495490   31.503963   35.800593
H    34.261490   31.949963   35.170593
C    33.013490   32.191963   36.868593
H    33.275490   33.191963   37.205593
C    32.051489   31.522963   37.646593
H    31.728489   32.012963   38.560593
C    31.576489   30.287963   37.312593
H    30.889489   29.737963   37.951593
C    32.027489   29.663963   36.134593
C    31.742489   28.216963   35.848593
H    31.416489   28.094963   34.813593
H    32.659489   27.645963   36.006593
H    30.949489   27.798963   36.469593
