15        
Initial atomic coordinates
C    32.075489   29.857463   36.307593
H    32.176489   30.872463   36.682593
C    31.266489   28.890463   36.974593
H    30.865489   29.122463   37.957593
C    31.144489   27.614463   36.499593
H    30.588489   26.855463   37.043593
C    31.841489   27.273463   35.293593
H    31.784489   26.287463   34.837593
C    32.712489   28.175463   34.743593
H    33.404490   27.868463   33.963593
C    32.819489   29.488463   35.230593
C    33.673490   30.505463   34.682593
H    33.788490   30.204463   33.638593
H    33.207490   31.487463   34.779593
H    34.637490   30.618463   35.182593
