15        
Initial atomic coordinates
C    30.309989   31.539963   34.658593
H    30.153989   32.614963   34.600593
C    29.455989   30.726963   35.387593
H    28.631989   31.145963   35.959593
C    29.633989   29.329963   35.496593
H    28.904989   28.850963   36.146593
C    30.728989   28.863963   34.708593
H    30.959989   27.801963   34.745593
C    31.612989   29.641963   33.972593
H    32.397989   29.171963   33.385593
C    31.392989   31.037963   33.963593
C    32.331989   31.912963   33.151593
H    32.641989   32.824963   33.664593
H    33.287990   31.436963   32.923593
H    31.878989   32.110963   32.178593
