15        
Initial atomic coordinates
C    32.465489   31.857963   33.833093
H    32.795489   30.844963   34.056093
C    32.777489   32.697963   32.740093
H    33.368490   32.360963   31.893093
C    32.317489   34.015963   32.709093
H    32.556489   34.691963   31.893093
C    31.702489   34.595963   33.775093
H    31.412489   35.638964   33.676093
C    31.315489   33.760963   34.819093
H    30.686489   34.092963   35.641093
C    31.672489   32.425963   34.827093
C    31.249489   31.454963   35.925093
H    31.075489   30.421963   35.615093
H    32.018489   31.419963   36.699093
H    30.388489   31.894963   36.433093
