15        
Initial atomic coordinates
C    31.126489   28.907963   36.051093
H    30.777489   29.422963   36.942093
C    30.758489   27.606963   35.804093
H    30.008489   27.105963   36.411093
C    31.522489   26.918963   34.810093
H    31.300489   25.854963   34.788093
C    32.350489   27.607963   33.940093
H    32.894490   27.056963   33.177093
C    32.542489   29.026963   34.120093
H    33.214490   29.551963   33.445093
C    31.948489   29.602963   35.204093
C    32.074489   31.127963   35.410093
H    32.040489   31.647963   34.450093
H    31.227489   31.554963   35.951093
H    32.944490   31.441963   35.991093
