15        
Initial atomic coordinates
C    31.755989   29.241963   35.682093
H    31.577989   29.804963   36.595093
C    31.308989   27.905963   35.744093
H    30.778989   27.484963   36.594093
C    31.678989   27.111963   34.645093
H    31.321989   26.087963   34.584093
C    32.329989   27.658963   33.540093
H    32.442989   27.050963   32.646093
C    32.767989   28.974963   33.490093
H    33.244990   29.389963   32.606093
C    32.458989   29.760963   34.625093
C    32.891990   31.193963   34.766093
H    33.866990   31.315963   34.289093
H    32.141989   31.812963   34.269093
H    32.981990   31.407963   35.832093
