15        
Initial atomic coordinates
C    30.779989   30.950963   35.736593
H    31.014989   31.901963   36.206593
C    29.917989   30.094963   36.395593
H    29.389989   30.549963   37.229593
C    29.724989   28.793963   36.046593
H    29.168989   28.069963   36.635593
C    30.339989   28.290963   34.882593
H    30.264989   27.215963   34.741593
C    31.180989   29.094963   34.183593
H    31.695989   28.847963   33.259593
C    31.402989   30.429963   34.625593
C    32.305989   31.292963   33.776593
H    32.874989   31.961963   34.424593
H    33.053990   30.649963   33.305593
H    31.736989   31.872963   33.047593
