15        
Initial atomic coordinates
C    31.537489   28.702963   34.297093
H    31.785489   28.033963   33.475093
C    32.059489   29.985963   34.286093
H    32.646489   30.296963   33.426093
C    31.730489   30.919963   35.319093
H    32.178489   31.906963   35.241093
C    30.874489   30.530963   36.347093
H    30.646489   31.330963   37.047093
C    30.364489   29.220963   36.292093
H    29.717489   28.891963   37.102093
C    30.700489   28.265963   35.313093
C    30.179489   26.921963   35.367093
H    29.263489   26.801963   35.949093
H    29.942489   26.518963   34.380093
H    30.948489   26.285963   35.808093
