15        
Initial atomic coordinates
C    31.087489   29.089963   34.292093
H    30.784489   28.179963   33.778093
C    31.657489   30.163963   33.581093
H    31.930489   30.178963   32.529093
C    32.007489   31.337963   34.265093
H    32.499489   32.203963   33.829093
C    31.715489   31.426963   35.622093
H    31.981489   32.320963   36.180093
C    31.115489   30.415963   36.318093
H    31.047489   30.466963   37.401093
C    30.830489   29.224963   35.647093
C    29.951489   28.178963   36.355093
H    30.271489   27.959963   37.376093
H    28.908489   28.501963   36.345093
H    30.008489   27.190963   35.895093
