15        
Initial atomic coordinates
C    32.979990   30.121463   39.279093
H    32.544989   31.111463   39.395093
C    34.008990   29.732463   40.157094
H    34.289990   30.319463   41.027094
C    34.564990   28.491463   39.953094
H    35.427990   28.161463   40.526094
C    34.248990   27.730463   38.818093
H    34.626990   26.718463   38.698093
C    33.259990   28.121463   37.976093
H    33.094990   27.356463   37.222093
C    32.687989   29.407463   38.112093
C    31.859989   30.029463   37.017093
H    31.851989   29.432463   36.104093
H    30.829989   30.298463   37.261093
H    32.266989   31.022463   36.814093
