15        
Initial atomic coordinates
C    31.862489   28.744463   33.496593
H    31.858489   27.901463   32.811593
C    32.422489   29.971463   33.092593
H    32.815489   30.178463   32.100593
C    32.597489   30.952463   34.060593
H    33.069490   31.881463   33.751593
C    32.189489   30.772463   35.409593
H    32.316489   31.522463   36.185593
C    31.563489   29.571463   35.716593
H    31.179489   29.564463   36.733593
C    31.445489   28.548463   34.816593
C    30.919489   27.172463   35.339593
H    30.927489   26.381463   34.586593
H    31.476489   27.024463   36.267593
H    29.921489   27.216463   35.778593
