15        
Initial atomic coordinates
C    31.107489   29.701463   33.597093
H    31.007489   28.772463   33.040093
C    31.897489   30.768463   33.138093
H    32.380489   30.839463   32.167093
C    32.161489   31.895463   33.957093
H    32.787489   32.735463   33.667093
C    31.615489   31.947463   35.201093
H    31.834489   32.760463   35.888093
C    30.771489   30.965463   35.691093
H    30.272489   31.135463   36.641093
C    30.510489   29.842463   34.875093
C    29.648489   28.682463   35.442093
H    29.836489   27.844463   34.767093
H    29.783489   28.524463   36.514093
H    28.616489   28.995463   35.267093
