15        
Initial atomic coordinates
C    33.776490   30.114463   34.506093
H    33.977490   29.101463   34.166093
C    34.390490   31.275463   33.961093
H    35.062490   31.037463   33.140093
C    34.346490   32.501463   34.549093
H    34.731490   33.379463   34.038093
C    33.429490   32.677463   35.575093
H    33.337490   33.623463   36.105093
C    32.744489   31.550463   36.143093
H    32.242489   31.519463   37.107093
C    32.966490   30.262463   35.616093
C    32.337489   29.029463   36.287093
H    32.672489   28.147463   35.738093
H    32.684489   29.085463   37.322093
H    31.250489   29.110463   36.245093
