15        
Initial atomic coordinates
C    32.163489   30.746963   36.774093
H    31.847489   31.166963   37.726093
C    31.981489   29.353963   36.544093
H    31.452489   28.716963   37.249093
C    32.529489   28.748963   35.379093
H    32.323489   27.705963   35.149093
C    33.194490   29.583963   34.425093
H    33.559490   29.137963   33.504093
C    33.338490   30.924963   34.651093
H    33.999490   31.444963   33.963093
C    32.903490   31.503963   35.845093
C    33.246490   32.987963   36.206093
H    34.311490   33.156963   36.374093
H    32.953490   33.547963   35.315093
H    32.597489   33.319963   37.019093
