15        
Initial atomic coordinates
C    31.077489   30.424463   33.826593
H    31.453489   29.628463   33.188593
C    31.505489   31.732463   33.545593
H    32.191489   32.034463   32.758593
C    31.102489   32.815463   34.346593
H    31.552489   33.775463   34.107593
C    30.225489   32.664463   35.379593
H    29.945489   33.511463   36.000593
C    29.718489   31.372463   35.560593
H    28.969489   31.148463   36.315593
C    30.145489   30.271463   34.873593
C    29.554489   28.909463   35.133593
H    30.249489   28.129463   34.815593
H    29.188489   28.857463   36.161593
H    28.701489   28.831463   34.457593
