15        
Initial atomic coordinates
C    31.923989   28.935963   34.030593
H    32.621989   28.292963   33.502593
C    32.019989   30.359963   34.095593
H    32.922990   30.825963   33.709593
C    31.108989   31.015963   34.876593
H    31.276989   32.078963   35.019593
C    30.064989   30.371963   35.533593
H    29.337989   30.931963   36.116593
C    29.982989   28.968963   35.531593
H    29.168989   28.427963   36.007593
C    30.952989   28.234963   34.814593
C    30.844989   26.684963   34.643593
H    31.504989   26.151963   35.330593
H    29.855989   26.382963   34.994593
H    30.892989   26.269963   33.634593
