13        
Initial atomic coordinates
C    29.446991   28.996003   35.608981
H    28.937991   29.653003   36.310981
C    29.076991   27.626003   35.536981
H    28.346991   27.226003   36.235981
C    29.562991   26.864003   34.475981
H    29.468991   25.781003   34.461981
C    30.302991   27.446003   33.464981
H    30.648991   26.892003   32.596981
C    30.609991   28.836003   33.502981
H    31.185991   29.311003   32.712981
C    30.221991   29.580003   34.631981
O    30.524991   30.943003   34.707981
H    31.275991   31.227003   34.156981
