13        
Initial atomic coordinates
C    29.360991   29.409503   35.419981
H    28.688991   29.856503   36.147981
C    29.115991   28.042503   35.015981
H    28.216991   27.455503   35.187981
C    29.946991   27.476503   34.079981
H    29.788991   26.459503   33.729981
C    31.038991   28.138503   33.558981
H    31.701991   27.676503   32.832981
C    31.291991   29.431503   33.937981
H    32.106991   29.949503   33.440981
C    30.466991   30.099503   34.845981
O    30.818991   31.309503   35.283981
H    31.705991   31.529503   34.944981
