13        
Initial atomic coordinates
C    31.026491   30.110503   35.738481
H    31.587491   30.934503   36.171481
C    30.152491   29.361503   36.576481
H    29.917491   29.827503   37.529481
C    29.673491   28.150503   36.140481
H    29.078491   27.528503   36.804481
C    30.090491   27.614503   34.898481
H    29.670491   26.665503   34.575481
C    31.013491   28.380503   34.163481
H    31.384491   28.059503   33.194481
C    31.504491   29.601503   34.583481
O    32.537491   30.159503   33.820481
H    32.643491   31.115503   33.972481
