13        
Initial atomic coordinates
C    31.779991   31.075503   34.713481
H    32.336991   31.901503   35.147481
C    30.744991   30.505503   35.491481
H    30.457991   30.925503   36.452481
C    29.946991   29.553503   34.897481
H    29.078991   29.227503   35.465481
C    30.282991   28.950503   33.698481
H    29.636991   28.165503   33.315481
C    31.386991   29.481503   32.989481
H    31.743991   28.941503   32.116481
C    32.246991   30.479503   33.512481
O    33.305992   30.955503   32.881481
H    33.491992   31.887503   33.088481
