13        
Initial atomic coordinates
C    31.433491   30.901503   35.477481
H    31.888491   31.864503   35.693481
C    30.345491   30.456503   36.292481
H    30.016491   30.922503   37.217481
C    29.744491   29.248503   35.957481
H    28.934491   28.817503   36.541481
C    30.154491   28.509503   34.820481
H    29.623491   27.586503   34.597481
C    31.122491   29.028503   34.012481
H    31.349491   28.507503   33.085481
C    31.756491   30.202503   34.353481
O    32.695491   30.734503   33.505481
H    32.753491   31.702503   33.589481
