13        
Initial atomic coordinates
C    29.770491   29.367003   34.707481
H    30.023491   30.284003   35.231481
C    28.895491   28.490003   35.388481
H    28.287491   28.672003   36.272481
C    28.680491   27.235003   34.890481
H    27.998491   26.673003   35.523481
C    29.254491   26.893003   33.631481
H    29.095491   25.903003   33.211481
C    30.178491   27.727003   33.025481
H    30.733491   27.302003   32.193481
C    30.435491   29.002003   33.488481
O    31.454491   29.648003   32.960481
H    31.490491   30.553003   33.318481
