13        
Initial atomic coordinates
C    30.447491   30.400503   35.850481
H    30.261491   30.865503   36.815481
C    29.997491   29.114503   35.492481
H    29.421491   28.508503   36.187481
C    30.322491   28.584503   34.291481
H    29.913491   27.594503   34.103481
C    31.327491   29.156503   33.551481
H    31.740491   28.666503   32.673481
C    31.837491   30.364503   33.907481
H    32.648491   30.815503   33.340481
C    31.390491   31.012503   35.047481
O    31.904491   32.217504   35.405481
H    32.269491   32.647504   34.610481
