13        
Initial atomic coordinates
C    31.296491   31.636003   35.645981
H    31.763491   32.587004   35.884981
C    30.563491   31.042003   36.591981
H    30.450491   31.492003   37.574981
C    30.075491   29.765003   36.303981
H    29.564491   29.276003   37.129981
C    30.318491   29.017003   35.096981
H    29.880491   28.040003   34.908981
C    31.009491   29.687003   34.138981
H    31.136491   29.249003   33.151981
C    31.532491   30.966003   34.399981
O    32.209491   31.624003   33.443981
H    32.487491   32.498004   33.771981
