13        
Initial atomic coordinates
C    29.317491   29.251503   36.038981
H    28.802491   29.867503   36.770981
C    28.908491   27.925503   35.909981
H    28.063491   27.558503   36.486981
C    29.381491   27.198503   34.808981
H    28.916491   26.236503   34.608981
C    30.338491   27.728503   33.966981
H    30.642491   27.156503   33.093981
C    30.928491   28.989503   34.213981
H    31.717491   29.309503   33.537981
C    30.326491   29.770503   35.211981
O    30.693491   31.080503   35.434981
H    31.516491   31.300503   34.962981
