13        
Initial atomic coordinates
C    31.099991   31.429003   35.426481
H    31.660991   32.344004   35.596481
C    30.143991   30.988003   36.347481
H    29.979991   31.382003   37.347481
C    29.264991   29.943003   36.002481
H    28.471991   29.722003   36.712481
C    29.353991   29.275003   34.815481
H    28.625991   28.494003   34.609481
C    30.421991   29.635003   33.950481
H    30.417991   29.145003   32.979481
C    31.197991   30.669003   34.254481
O    32.051991   31.144003   33.329481
H    32.346991   32.046003   33.547481
