13        
Initial atomic coordinates
C    31.090491   30.171003   35.239981
H    31.662491   31.055003   35.507981
C    30.156491   29.576003   36.126981
H    30.173491   30.027003   37.115981
C    29.424491   28.453003   35.755981
H    28.684491   28.032003   36.431981
C    29.610491   27.870003   34.507981
H    29.008491   27.030003   34.170981
C    30.511491   28.446003   33.665981
H    30.680491   28.043003   32.669981
C    31.240491   29.613003   33.948981
O    32.056491   30.157003   33.026981
H    32.400491   31.008003   33.350981
