13        
Initial atomic coordinates
C    29.391491   30.343003   34.649981
H    28.805491   30.915003   35.364981
C    29.000491   29.028003   34.489981
H    28.201491   28.571003   35.067981
C    29.668491   28.182003   33.625981
H    29.454491   27.117003   33.589981
C    30.588491   28.731003   32.735981
H    31.076491   28.112003   31.986981
C    30.838491   30.063003   32.748981
H    31.601491   30.500003   32.110981
C    30.300491   30.896003   33.738981
O    30.615491   32.181003   33.804981
H    31.469491   32.380004   33.382981
