13        
Initial atomic coordinates
C    30.372991   30.412003   33.912481
H    30.542991   31.474003   34.070481
C    29.379991   29.853003   34.667481
H    28.800991   30.371003   35.429481
C    29.021991   28.494003   34.490481
H    28.255991   27.988003   35.072481
C    29.761991   27.732003   33.633481
H    29.563991   26.664003   33.674481
C    30.674991   28.368003   32.752481
H    31.345991   27.824003   32.091481
C    30.962991   29.688003   32.870481
O    31.972991   30.264003   32.207481
H    31.965991   31.235003   32.287481
