13        
Initial atomic coordinates
C    29.865991   30.821503   35.506481
H    29.486991   31.406503   36.341481
C    29.319991   29.579503   35.261481
H    28.410991   29.307503   35.790481
C    29.786991   28.903503   34.057481
H    29.196991   28.056503   33.716481
C    30.857991   29.463503   33.359481
H    31.237991   28.877503   32.525481
C    31.447991   30.661503   33.753481
H    32.243991   31.089503   33.149481
C    30.928991   31.343503   34.787481
O    31.510991   32.424504   35.243481
H    31.991991   32.826504   34.497481
