13        
Initial atomic coordinates
C    29.197491   29.895503   36.218481
H    28.928491   30.576503   37.021481
C    28.624491   28.659503   35.955481
H    27.922491   28.296503   36.700481
C    29.033491   27.871503   34.889481
H    28.717491   26.834503   34.821481
C    30.097491   28.330503   34.101481
H    30.335491   27.841503   33.161481
C    30.623491   29.627503   34.359481
H    31.272491   30.113503   33.635481
C    30.166491   30.453503   35.438481
O    30.836491   31.587503   35.779481
H    31.515491   31.855503   35.135481
