13        
Initial atomic coordinates
C    30.287491   30.714003   35.309981
H    30.575491   31.748003   35.483981
C    29.480491   30.048003   36.259981
H    29.149491   30.640003   37.109981
C    28.963491   28.733003   36.024981
H    28.246491   28.295003   36.714981
C    29.433491   28.041003   34.897981
H    29.098491   27.048003   34.607981
C    30.346491   28.623003   34.069981
H    30.859491   28.123003   33.252981
C    30.763491   29.942003   34.229981
O    31.699491   30.466003   33.375981
H    31.945491   31.343003   33.720981
