13        
Initial atomic coordinates
C    31.112991   30.419003   35.484981
H    31.740991   31.173003   35.952981
C    30.011991   29.865003   36.202981
H    29.732991   30.206003   37.195981
C    29.557991   28.648003   35.736981
H    28.740991   28.149003   36.250981
C    29.975991   28.075003   34.564981
H    29.653991   27.082003   34.260981
C    30.894991   28.751003   33.781981
H    31.039991   28.426003   32.754981
C    31.527991   29.884003   34.254981
O    32.484991   30.548003   33.583981
H    32.683991   31.343003   34.109981
