13        
Initial atomic coordinates
C    31.153491   31.456003   35.269981
H    31.177491   32.459004   35.688981
C    30.508491   30.504003   36.019981
H    30.127491   30.903003   36.957981
C    30.292491   29.239003   35.495981
H    29.693491   28.472003   35.981981
C    30.790491   28.861003   34.266981
H    30.623491   27.868003   33.858981
C    31.655491   29.772003   33.560981
H    31.971491   29.601003   32.534981
C    31.700491   31.058003   34.076981
O    32.388491   31.877003   33.233981
H    32.761491   32.659004   33.677981
