15        
Initial atomic coordinates
O    32.785492   31.401531   33.702607
H    33.219492   32.104531   34.219607
C    32.032492   30.725531   34.647607
C    31.531492   29.457531   34.412607
H    31.638492   29.072531   33.401607
C    30.671492   28.790531   35.336608
H    30.137492   27.887531   35.053608
C    30.367492   29.412531   36.615608
H    29.719492   28.923531   37.338608
C    30.946492   30.660531   36.891608
H    30.702492   31.193531   37.806608
C    31.799492   31.242531   35.923608
N    32.342492   32.440531   36.323608
H    32.778492   32.963531   35.571608
H    31.749492   33.073532   36.846608
