15        
Initial atomic coordinates
O    32.823492   31.355031   34.357607
H    32.860492   32.308031   34.558607
C    31.826492   30.773031   35.106608
C    31.407492   29.538031   34.735607
H    31.674492   29.052031   33.801607
C    30.535492   28.815031   35.551608
H    30.278492   27.801031   35.253608
C    30.078492   29.375031   36.710608
H    29.461492   28.802031   37.398608
C    30.490492   30.648031   37.065608
H    30.199492   31.013031   38.047608
C    31.330492   31.359031   36.264608
N    31.667492   32.664031   36.567608
H    31.261492   33.062031   37.408608
H    32.189492   33.310032   35.985608
