15        
Initial atomic coordinates
O    33.283992   29.114531   33.358607
H    33.494992   30.028531   33.618607
C    32.516992   28.595531   34.376607
C    31.815992   27.393531   34.092607
H    31.886992   26.895531   33.128607
C    31.162992   26.701531   35.115608
H    30.867992   25.661531   34.998608
C    31.089992   27.219531   36.353608
H    30.475992   26.720531   37.100608
C    31.711992   28.431531   36.654608
H    31.649992   28.890531   37.637608
C    32.427992   29.157531   35.674608
N    33.100992   30.309531   36.136608
H    33.781992   30.732531   35.515608
H    33.548992   30.048531   37.008608
