15        
Initial atomic coordinates
O    32.734492   30.287031   33.727607
H    32.966492   31.113031   34.186607
C    31.909492   29.596031   34.530607
C    31.699492   28.222031   34.292607
H    32.093492   27.797031   33.371607
C    30.971492   27.459031   35.226608
H    30.853492   26.382031   35.140608
C    30.348492   28.074031   36.271608
H    29.678492   27.507031   36.913608
C    30.467492   29.449031   36.416608
H    29.745492   29.979031   37.031608
C    31.194492   30.237031   35.544608
N    31.213492   31.573031   35.756608
H    31.895492   32.195031   35.333608
H    30.752492   31.923031   36.588608
