15        
Initial atomic coordinates
O    33.029992   31.142031   31.834607
H    33.079992   31.984031   32.321607
C    32.367992   30.152031   32.462607
C    32.011992   28.984031   31.850607
H    32.287992   28.827031   30.810607
C    31.396992   27.912031   32.457607
H    31.292992   27.003031   31.872607
C    31.092992   28.020031   33.833607
H    30.557992   27.219031   34.337607
C    31.474992   29.231031   34.494607
H    31.230992   29.339031   35.548608
C    32.126992   30.200031   33.837607
N    32.496992   31.260031   34.626607
H    33.090992   30.996031   35.404608
H    32.836992   32.105031   34.181607
