15        
Initial atomic coordinates
O    34.026492   30.959031   33.772107
H    34.301492   31.817031   34.142107
C    32.988492   30.327031   34.436107
C    32.681492   29.041031   34.066107
H    33.292492   28.579031   33.296107
C    31.711492   28.401031   34.848108
H    31.399492   27.388031   34.601107
C    30.998492   29.080031   35.849108
H    30.141492   28.560031   36.268108
C    31.279492   30.419031   36.172108
H    30.745492   30.935031   36.965108
C    32.315492   30.985031   35.469108
N    32.614492   32.250031   35.807108
H    32.902492   32.819031   35.017108
H    32.029492   32.757031   36.461108
