15        
Initial atomic coordinates
O    33.152992   30.929031   34.058107
H    32.943992   31.866031   34.220107
C    32.489992   30.132031   34.902108
C    32.417992   28.752031   34.640107
H    33.076992   28.365031   33.866107
C    31.755992   27.887031   35.522108
H    31.765992   26.824031   35.294108
C    31.172992   28.346031   36.679108
H    30.641992   27.629031   37.299108
C    31.180992   29.764031   36.953108
H    30.680992   30.209031   37.809108
C    31.883992   30.592031   36.081108
N    31.913992   31.929031   36.371108
H    31.437992   32.364031   37.154108
H    32.487992   32.486031   35.748108
