15        
Initial atomic coordinates
O    32.264492   31.318031   33.697607
H    32.568492   32.167031   34.065607
C    31.263492   30.931031   34.499607
C    30.787492   29.609031   34.468607
H    31.197492   28.979031   33.683607
C    29.783492   29.179031   35.368608
H    29.448492   28.145031   35.348608
C    29.374492   30.035031   36.378608
H    28.719492   29.649031   37.152608
C    29.875492   31.355031   36.423608
H    29.532492   32.044031   37.190608
C    30.821492   31.780031   35.551608
N    31.137492   33.096032   35.665608
H    31.868492   33.471032   35.071608
H    30.617492   33.688032   36.305608
