15        
Initial atomic coordinates
O    33.203492   32.139031   33.590607
H    33.327492   32.978031   34.068607
C    32.635492   31.318031   34.533607
C    32.058492   30.048031   34.136607
H    32.175492   29.670031   33.124607
C    31.332492   29.362031   34.992608
H    30.852492   28.453031   34.635607
C    31.253492   29.717031   36.318608
H    30.651492   29.129031   37.006608
C    31.841492   30.790031   36.787608
H    31.792492   31.062031   37.839608
C    32.566492   31.635031   35.911608
N    33.188492   32.726031   36.414608
H    33.532492   33.377032   35.716608
H    33.472492   32.812031   37.383608
