15        
Initial atomic coordinates
O    33.217992   30.650031   33.272107
H    33.398992   31.585031   33.479107
C    32.378992   30.135031   34.261107
C    31.675992   28.974031   33.942107
H    31.921992   28.378031   33.068107
C    30.636992   28.490031   34.820108
H    30.008992   27.635031   34.584107
C    30.446992   29.123031   36.064108
H    29.808992   28.770031   36.869108
C    31.200992   30.271031   36.365108
H    30.938992   30.824031   37.262108
C    32.164992   30.767031   35.447108
N    32.935992   31.805031   35.940108
H    32.840992   31.985031   36.935108
H    33.689992   32.244031   35.423108
