15        
Initial atomic coordinates
O    33.621992   30.798531   32.679607
H    34.075992   31.536531   33.123607
C    32.599992   30.440531   33.458607
C    32.154992   29.143531   33.283607
H    32.619992   28.434531   32.602607
C    31.227992   28.710531   34.220607
H    30.909992   27.679531   34.086607
C    30.812992   29.451531   35.309608
H    30.164992   28.938531   36.014608
C    31.317992   30.711531   35.466608
H    31.019992   31.364531   36.281608
C    32.211992   31.225531   34.551607
N    32.797992   32.401531   34.802608
H    33.183992   32.786531   33.944607
H    32.460992   32.929531   35.598608
