14        
Initial atomic coordinates
O    33.648091   32.092918   36.578630
H    33.931091   32.676918   35.852630
C    33.195091   31.020918   35.939630
C    32.273091   30.148918   36.524630
H    31.891091   30.523918   37.469630
C    31.772091   28.988918   35.949630
H    31.047091   28.368918   36.471630
C    32.276091   28.619918   34.765630
H    31.980091   27.666918   34.332630
C    33.221091   29.444918   34.148630
H    33.475091   29.181918   33.125630
C    33.754091   30.609918   34.732630
O    34.594091   31.397918   34.038630
H    34.738091   32.230918   34.521630
