14        
Initial atomic coordinates
O    33.310091   32.656418   34.734130
H    33.884091   32.889418   33.982130
C    33.141091   31.288418   34.765130
C    32.534091   30.679418   35.877130
H    32.313091   31.302418   36.740130
C    32.371091   29.303418   35.974130
H    32.065091   28.828418   36.902130
C    32.694091   28.535418   34.873130
H    32.437091   27.478418   34.890130
C    33.470091   29.092418   33.815130
H    33.817091   28.523418   32.957130
C    33.643091   30.449418   33.742130
O    34.403091   30.913418   32.651130
H    34.993091   31.618418   32.972130
