14        
Initial atomic coordinates
O    32.025091   33.177918   35.158130
H    32.667091   33.665918   34.613130
C    31.917091   31.834918   34.872130
C    31.030091   31.029918   35.596130
H    30.566091   31.467918   36.476130
C    30.706091   29.716918   35.230130
H    29.938091   29.138918   35.738130
C    31.513091   29.145918   34.212130
H    31.301091   28.090918   34.055130
C    32.471091   29.887918   33.566130
H    32.996091   29.460918   32.716130
C    32.676091   31.204918   33.887130
O    33.646091   31.815918   33.114130
H    33.680091   32.744918   33.408130
