14        
Initial atomic coordinates
O    33.383591   32.688918   36.173630
H    34.145591   32.922918   35.614630
C    32.892591   31.448918   35.884630
C    31.972591   30.812918   36.750630
H    31.654591   31.290918   37.672630
C    31.424591   29.593918   36.461630
H    30.747591   29.086918   37.143630
C    31.818591   28.917918   35.292630
H    31.443591   27.949918   34.970630
C    32.863591   29.485918   34.499630
H    33.239591   28.843918   33.706630
C    33.369591   30.720918   34.775630
O    34.403591   31.225918   33.992630
H    34.519591   32.175918   34.179630
