14        
Initial atomic coordinates
O    31.715591   33.256918   36.143130
H    32.356591   33.809918   35.662130
C    31.527591   31.922918   35.721130
C    30.440591   31.331918   36.331130
H    29.817591   31.870918   37.040130
C    30.097591   30.017918   35.956130
H    29.279591   29.571918   36.516130
C    30.872591   29.271918   35.041130
H    30.711591   28.196918   35.002130
C    31.874591   29.950918   34.349130
H    32.474591   29.426918   33.610130
C    32.189591   31.294918   34.652130
O    33.243591   31.784918   33.921130
H    33.463591   32.652918   34.304130
