14        
Initial atomic coordinates
O    32.628091   31.897418   35.373630
H    32.800091   32.279418   34.493630
C    32.360091   30.560418   35.222630
C    31.596091   29.862418   36.198630
H    31.139091   30.394418   37.029630
C    31.380091   28.509418   36.151630
H    30.750091   28.137418   36.955630
C    31.969091   27.737418   35.187630
H    31.906091   26.653418   35.236630
C    32.549091   28.401418   34.078630
H    32.870091   27.850418   33.197630
C    32.794091   29.756418   34.124630
O    33.549091   30.249418   33.065630
H    33.284091   31.178418   32.944630
