14        
Initial atomic coordinates
O    33.205091   33.273418   36.355130
H    33.893091   33.582418   35.738130
C    32.554091   32.246418   35.777130
C    31.595091   31.667418   36.570130
H    31.312091   32.051418   37.548130
C    30.894091   30.582418   36.103130
H    30.081091   30.168418   36.692130
C    31.331091   29.876418   34.999130
H    30.820091   28.985418   34.644130
C    32.395091   30.383418   34.237130
H    32.672091   29.880418   33.314130
C    32.944091   31.622418   34.554130
O    33.937091   32.109418   33.700130
H    34.283091   32.976418   33.976130
