14        
Initial atomic coordinates
O    34.080591   32.003918   36.061630
H    34.798591   32.270918   35.459630
C    33.622591   30.745918   35.807630
C    32.823591   30.204918   36.821630
H    32.603591   30.739918   37.741630
C    32.193591   28.925918   36.728630
H    31.558591   28.577918   37.537630
C    32.462591   28.237918   35.553630
H    32.116591   27.213918   35.444630
C    33.192591   28.885918   34.526630
H    33.383591   28.326918   33.614630
C    33.911591   30.049918   34.667630
O    34.826591   30.407918   33.774630
H    35.165591   31.296918   33.990630
