14        
Initial atomic coordinates
O    34.179591   31.652918   34.533630
H    34.811591   31.993918   33.874630
C    33.705591   30.459918   34.167630
C    33.099591   29.732918   35.161630
H    33.017591   30.171918   36.152630
C    32.574591   28.477918   35.006630
H    32.125591   27.935918   35.835630
C    32.674591   27.910918   33.676630
H    32.362591   26.878918   33.544630
C    33.236591   28.630918   32.650630
H    33.242591   28.170918   31.665630
C    33.784591   29.933918   32.836630
O    34.301591   30.581918   31.774630
H    34.797591   31.379918   32.031630
