14        
Initial atomic coordinates
O    34.580591   33.778918   36.021630
H    35.189591   34.142918   35.354630
C    34.171591   32.499918   35.756630
C    33.605591   31.693918   36.790630
H    33.544591   32.065918   37.810630
C    33.288591   30.357918   36.562630
H    32.749591   29.669918   37.208630
C    33.672591   29.805918   35.333630
H    33.395591   28.791918   35.053630
C    34.143591   30.622918   34.297630
H    34.254591   30.234918   33.288630
C    34.395591   31.951918   34.519630
O    35.001591   32.709918   33.493630
H    35.472591   33.468918   33.883630
