14        
Initial atomic coordinates
O    32.642591   32.651418   36.460130
H    33.024591   33.034418   35.651130
C    32.233591   31.327418   36.260130
C    31.553591   30.791418   37.304130
H    31.523591   31.353418   38.234131
C    31.106591   29.460418   37.198130
H    30.565591   28.934418   37.981130
C    31.524591   28.698418   36.111130
H    31.408591   27.625418   36.244130
C    32.123591   29.277418   34.952130
H    32.399591   28.643418   34.114130
C    32.550591   30.598418   35.091130
O    33.434591   31.203418   34.163130
H    33.727591   32.106418   34.382130
