14        
Initial atomic coordinates
O    33.071591   32.503418   35.797130
H    33.567591   32.941418   35.084130
C    32.640591   31.312418   35.397130
C    31.864591   30.607418   36.320130
H    31.640591   30.994418   37.311130
C    31.464591   29.321418   36.118130
H    30.945591   28.680418   36.825130
C    31.833591   28.696418   34.929130
H    31.679591   27.624418   34.848130
C    32.541591   29.505418   33.998130
H    32.918591   29.006418   33.109130
C    33.000591   30.781418   34.217130
O    33.779591   31.353418   33.257130
H    34.417591   32.038418   33.526130
