14        
Initial atomic coordinates
O    32.748091   33.305418   36.279630
H    33.242091   33.603418   35.495630
C    32.226091   32.009418   35.952630
C    31.609091   31.273418   36.950630
H    31.636091   31.557418   37.999630
C    31.118091   30.021418   36.581630
H    30.645091   29.468418   37.388630
C    31.077091   29.592418   35.251630
H    30.610091   28.625418   35.082630
C    31.667091   30.323418   34.229630
H    31.736091   29.933418   33.216630
C    32.208091   31.574418   34.608630
O    32.807091   32.285418   33.609630
H    33.548091   32.804418   33.972630
