14        
Initial atomic coordinates
O    33.454091   32.657918   35.985130
H    34.162091   33.000918   35.411130
C    33.031091   31.395918   35.563130
C    31.875091   30.836918   36.142130
H    31.281091   31.531918   36.731130
C    31.374091   29.586918   35.750130
H    30.451091   29.192918   36.165130
C    32.090091   28.845918   34.817130
H    31.735091   27.863918   34.520130
C    33.230091   29.411918   34.216130
H    33.742091   28.908918   33.399130
C    33.570091   30.695918   34.448130
O    34.511091   31.353918   33.673130
H    34.681091   32.256918   33.994130
