14        
Initial atomic coordinates
O    34.419591   31.749918   36.377130
H    34.897591   32.250918   35.693130
C    33.944591   30.613918   35.839130
C    33.051591   29.855918   36.617130
H    32.883591   30.148918   37.650130
C    32.497591   28.636918   36.197130
H    31.914591   28.002918   36.861130
C    32.750591   28.222918   34.850130
H    32.216591   27.407918   34.367130
C    33.576591   28.996918   34.054130
H    33.787591   28.615918   33.058130
C    34.181591   30.187918   34.526130
O    35.197591   30.665918   33.714130
H    35.544591   31.500918   34.078130
