14        
Initial atomic coordinates
O    34.134591   33.157418   35.242630
H    34.954591   33.317418   34.742630
C    33.664591   31.873418   35.075630
C    32.652591   31.380418   35.905630
H    32.145591   32.076418   36.569630
C    32.144591   30.078418   35.811630
H    31.354591   29.787418   36.498630
C    32.782591   29.249418   34.887630
H    32.477591   28.206418   34.930630
C    33.842591   29.644418   34.108630
H    34.376591   28.961418   33.452630
C    34.324591   30.967418   34.171630
O    35.375591   31.245418   33.341630
H    35.523591   32.208418   33.310630
