14        
Initial atomic coordinates
O    33.364591   32.788918   34.377130
H    34.147591   33.111918   33.896130
C    33.232591   31.438918   34.212130
C    32.477591   30.676918   35.100130
H    32.069591   31.241918   35.933130
C    32.541591   29.291918   35.002130
H    31.954591   28.721918   35.718130
C    33.170591   28.664918   34.001130
H    33.118591   27.581918   33.920130
C    33.927591   29.422918   33.084130
H    34.456591   28.871918   32.310130
C    33.902591   30.816918   33.121130
O    34.704591   31.444918   32.253130
H    35.195591   32.208918   32.604130
