14        
Initial atomic coordinates
O    32.716091   33.747418   35.397130
H    33.465091   33.841418   34.781130
C    32.069091   32.539418   35.159130
C    30.951091   32.207418   35.979130
H    30.699091   32.823418   36.839130
C    30.026091   31.146418   35.575130
H    29.271091   30.900418   36.317130
C    30.352091   30.343418   34.481130
H    29.780091   29.467418   34.186130
C    31.461091   30.589418   33.711130
H    31.616091   30.041418   32.784130
C    32.266091   31.709418   34.011130
O    33.321091   32.000418   33.145130
H    33.820091   32.713418   33.585130
