14        
Initial atomic coordinates
O    32.635091   31.767418   34.950630
H    33.284091   32.031418   34.272630
C    32.331091   30.459418   34.758630
C    31.288091   29.937418   35.532630
H    30.878091   30.479418   36.380630
C    30.863091   28.645418   35.318630
H    29.982091   28.367418   35.893630
C    31.224091   27.963418   34.231630
H    30.807091   27.030418   33.863630
C    32.351091   28.382418   33.430630
H    32.753091   27.913418   32.535630
C    32.883091   29.666418   33.764630
O    33.808091   30.029418   32.891630
H    34.227091   30.854418   33.196630
