14        
Initial atomic coordinates
O    34.647091   31.904418   35.229130
H    35.548091   32.218418   35.032130
C    34.317091   30.671418   34.789130
C    33.131091   30.084418   35.237130
H    32.451091   30.617418   35.896130
C    32.776091   28.835418   34.743130
H    31.838091   28.404418   35.084130
C    33.627091   28.100418   33.893130
H    33.332091   27.090418   33.619130
C    34.808091   28.713418   33.464130
H    35.482091   28.101418   32.871130
C    35.120091   29.995418   33.857130
O    36.184091   30.577418   33.163130
H    36.302091   31.501418   33.448130
