14        
Initial atomic coordinates
F    31.590916   29.591950   32.687135
C    31.486916   30.181950   33.901135
C    30.365916   30.071950   34.739135
H    29.460916   29.566950   34.410135
C    30.357916   30.728950   35.978135
H    29.575916   30.437950   36.675135
C    31.500916   31.459950   36.438135
H    31.508916   31.878950   37.441135
C    32.636916   31.531950   35.616135
H    33.562916   32.000950   35.936135
C    32.551916   31.007950   34.352135
N    33.658916   31.093950   33.604135
H    34.285916   31.881950   33.715135
H    33.481916   30.888950   32.627135
