14        
Initial atomic coordinates
F    32.287416   30.290950   33.988135
C    32.026416   30.971950   35.135135
C    31.165416   30.418950   36.086135
H    30.631416   29.486950   35.913135
C    31.074416   31.129950   37.319135
H    30.511416   30.667950   38.126136
C    31.811416   32.293951   37.579135
H    31.795416   32.822951   38.528136
C    32.676416   32.714951   36.543135
H    33.363416   33.531951   36.749135
C    32.751416   32.132950   35.330135
N    33.709416   32.621951   34.401135
H    34.190416   33.500951   34.550135
H    33.638416   32.168950   33.496135
