14        
Initial atomic coordinates
F    33.272416   27.498950   34.624635
C    32.765416   28.291950   35.548635
C    31.783416   27.797950   36.361635
H    31.478416   26.754950   36.375635
C    31.255416   28.629950   37.345635
H    30.396416   28.273950   37.910635
C    31.826416   29.903950   37.540635
H    31.357416   30.519950   38.302636
C    32.755416   30.406950   36.645635
H    33.219416   31.386950   36.733635
C    33.219416   29.628950   35.619635
N    34.213416   30.124950   34.891635
H    34.342416   31.126950   34.963635
H    34.625416   29.599950   34.128635
