14        
Initial atomic coordinates
F    32.285416   31.327950   34.289135
C    31.702416   30.976950   35.475135
C    30.954416   29.796950   35.569135
H    30.824416   29.131950   34.719135
C    30.416416   29.333950   36.755135
H    29.994416   28.335950   36.825135
C    30.361416   30.245950   37.798135
H    29.767416   30.013950   38.678136
C    30.966416   31.485950   37.730135
H    30.767416   32.266950   38.460136
C    31.739416   31.805950   36.638135
N    32.406416   32.968951   36.717135
H    32.789416   32.994951   37.655135
H    33.077416   33.224951   36.001135
