14        
Initial atomic coordinates
F    32.540416   28.500450   33.886635
C    31.990416   29.396450   34.747635
C    30.633416   29.328450   35.108635
H    29.974416   28.607450   34.630635
C    30.110416   30.195450   36.076635
H    29.052416   30.139450   36.321635
C    30.900416   31.259450   36.623635
H    30.519416   31.941450   37.379635
C    32.223416   31.386450   36.176635
H    32.855416   32.189450   36.549635
C    32.784416   30.472450   35.222635
N    34.067416   30.701450   34.828635
H    34.456416   31.620450   35.005635
H    34.177416   30.412450   33.862635
