14        
Initial atomic coordinates
F    32.355416   30.507950   34.051135
C    32.323416   31.524950   34.943135
C    31.269416   31.516950   35.877135
H    30.427416   30.841950   35.745135
C    31.350416   32.421951   36.951135
H    30.626416   32.254950   37.745135
C    32.417416   33.261951   37.174135
H    32.496416   33.967951   37.997136
C    33.357416   33.383951   36.119135
H    34.207416   34.055951   36.207135
C    33.301416   32.488951   35.086135
N    34.229416   32.651951   34.104135
H    34.976416   33.335951   34.167135
H    34.466416   31.777950   33.648135
