14        
Initial atomic coordinates
F    31.191916   31.217950   33.227135
C    30.625916   30.967950   34.430135
C    29.687916   29.997950   34.525135
H    29.371916   29.521950   33.600135
C    28.953916   29.830950   35.691135
H    28.151916   29.098950   35.698135
C    29.205916   30.588950   36.827135
H    28.631916   30.462950   37.740135
C    30.120916   31.602950   36.762135
H    30.457916   32.184950   37.617135
C    30.834916   31.792950   35.523135
N    31.708916   32.812951   35.513135
H    32.144916   32.936951   36.419135
H    32.341916   32.892951   34.725135
