14        
Initial atomic coordinates
F    32.657416   29.483450   33.937635
C    32.496416   30.468450   34.841635
C    31.541416   30.233450   35.805635
H    30.942416   29.328450   35.867635
C    31.418416   31.178450   36.842635
H    30.806416   31.009450   37.726635
C    32.100416   32.398451   36.715635
H    31.929416   33.228451   37.396635
C    32.998416   32.689451   35.692635
H    33.426416   33.676451   35.541635
C    33.129416   31.713450   34.697635
N    33.920416   31.993450   33.639635
H    34.428416   32.855451   33.800635
H    34.455416   31.237450   33.225635
