14        
Initial atomic coordinates
F    31.811916   28.461950   34.837135
C    31.257916   29.398950   35.626135
C    30.300916   29.038950   36.492135
H    29.926916   28.021950   36.412135
C    29.851916   29.887950   37.539135
H    29.112916   29.553950   38.261136
C    30.392916   31.111950   37.687135
H    30.064916   31.684950   38.549136
C    31.428916   31.559950   36.807135
H    31.913916   32.530951   36.872135
C    31.828916   30.703950   35.794135
N    32.805916   31.111950   34.952135
H    33.193916   31.999950   35.249135
H    33.461916   30.454950   34.545135
