14        
Initial atomic coordinates
F    31.905916   28.484950   34.345135
C    31.561916   29.167950   35.484135
C    30.506916   28.808950   36.278135
H    29.869916   27.952950   36.070135
C    30.334916   29.512950   37.473135
H    29.579916   29.145950   38.163136
C    31.138916   30.580950   37.831135
H    31.064916   30.986950   38.837136
C    32.153916   30.990950   36.940135
H    32.855916   31.733950   37.305135
C    32.352916   30.264950   35.778135
N    33.531916   30.540950   35.088135
H    34.001916   31.422950   35.264135
H    33.922916   29.957950   34.357135
