14        
Initial atomic coordinates
F    32.204916   28.784450   33.845635
C    31.996916   29.781450   34.653635
C    31.071916   29.555450   35.691635
H    30.579916   28.587450   35.674635
C    30.738916   30.578450   36.516635
H    29.983916   30.439450   37.285635
C    31.268916   31.830450   36.399635
H    31.001916   32.641451   37.071635
C    32.265916   32.073450   35.384635
H    32.672916   33.079451   35.433635
C    32.662916   31.007450   34.575635
N    33.635916   31.168450   33.689635
H    34.078916   32.079450   33.680635
H    34.234916   30.373450   33.496635
