14        
Initial atomic coordinates
F    32.411416   27.905950   34.627635
C    32.163416   28.343950   35.870635
C    31.333416   27.615950   36.755635
H    30.778416   26.737950   36.435635
C    31.217416   27.962950   38.115636
H    30.559416   27.369950   38.745636
C    31.826416   29.210950   38.476636
H    31.778416   29.536950   39.512636
C    32.710416   29.839950   37.665635
H    33.241416   30.750950   37.929635
C    32.902416   29.342950   36.401635
N    33.813416   30.011950   35.701635
H    33.919416   30.987950   35.951635
H    33.700416   29.950950   34.694635
