13        
Initial atomic coordinates
O    31.131457   31.799935   36.604609
H    31.552457   32.485935   36.053609
C    31.186457   30.556935   35.999609
C    30.373457   29.555935   36.488609
H    29.735457   29.768935   37.341609
C    30.475457   28.259935   35.874609
Cl   29.593457   26.860934   36.384609
C    31.427457   28.026935   34.941609
H    31.520457   27.036934   34.503609
C    32.199457   29.056935   34.381609
H    32.767457   28.858935   33.476609
C    32.058457   30.392935   34.917609
H    32.636457   31.220935   34.515609
