13        
Initial atomic coordinates
O    33.302457   32.721435   32.543109
H    33.349457   33.693435   32.577109
C    32.015457   32.207435   32.424109
C    31.706457   31.071435   33.137109
H    32.468457   30.523435   33.685109
C    30.352457   30.720435   33.200109
Cl   29.900457   29.244435   34.020109
C    29.442457   31.509435   32.572109
H    28.393457   31.246435   32.679109
C    29.782457   32.664435   31.879109
H    29.067457   33.306435   31.371109
C    31.110457   33.018435   31.735109
H    31.377457   33.935435   31.218109
