13        
Initial atomic coordinates
O    33.464957   31.938435   31.892109
H    34.205957   31.651435   32.456109
C    32.340957   31.217435   32.198109
C    32.171957   30.130435   33.028109
H    32.952957   29.740435   33.675109
C    30.869957   29.545435   33.119109
Cl   30.522957   28.203435   34.113109
C    29.823957   30.045435   32.294109
H    28.877957   29.522435   32.182109
C    30.081957   31.103435   31.472109
H    29.317957   31.460435   30.788109
C    31.320957   31.688435   31.390109
H    31.578957   32.492435   30.705109
