13        
Initial atomic coordinates
O    32.531457   33.160435   32.062609
H    33.280457   33.033435   32.671609
C    31.417457   32.412435   32.329609
C    31.476457   31.464435   33.330609
H    32.454457   31.254435   33.754609
C    30.325457   30.769435   33.630609
Cl   30.400457   29.498435   34.826609
C    29.150457   31.063435   33.003609
H    28.177457   30.620435   33.199609
C    29.120457   31.981435   32.006609
H    28.221457   32.283435   31.476609
C    30.276457   32.630435   31.658609
H    30.321457   33.298435   30.802609
