13        
Initial atomic coordinates
O    34.420457   32.828435   32.121609
H    35.069457   32.507435   32.773609
C    33.303457   32.130435   32.209609
C    33.179457   31.063435   33.062609
H    34.010457   30.871435   33.734609
C    31.890457   30.415435   33.293609
Cl   31.674457   29.380435   34.689609
C    30.793457   30.908435   32.547609
H    29.793457   30.621435   32.867609
C    30.925457   32.001435   31.650609
H    30.024457   32.471435   31.264609
C    32.221457   32.506435   31.429609
H    32.386457   33.141435   30.562609
