13        
Initial atomic coordinates
O    31.634957   31.847935   35.591109
H    32.305957   32.121935   34.940109
C    31.214957   30.600935   35.263109
C    30.240957   30.007935   36.037109
H    29.850957   30.553935   36.892109
C    29.894957   28.676935   35.814109
Cl   28.747957   28.083935   36.935109
C    30.525957   27.906935   34.866109
H    30.229957   26.861934   34.845109
C    31.506957   28.483935   34.086109
H    32.020957   27.892935   33.331109
C    31.879957   29.857935   34.335109
H    32.572957   30.390935   33.690109
