13        
Initial atomic coordinates
O    35.023957   31.642935   33.086609
H    35.099957   32.610935   33.172609
C    33.794957   31.330935   32.662609
C    33.108957   30.230935   33.104609
H    33.541957   29.542935   33.825609
C    31.770957   30.083935   32.654609
Cl   30.859957   28.744935   33.264609
C    31.200957   31.113935   32.031609
H    30.139957   30.972935   31.847609
C    31.895957   32.277935   31.640609
H    31.450957   33.121935   31.120609
C    33.224957   32.240935   31.828609
H    33.905957   33.017935   31.492609
