13        
Initial atomic coordinates
O    31.302957   32.233435   35.870609
H    32.009957   32.735435   35.424609
C    31.141957   31.051435   35.385609
C    30.226957   30.186435   36.024609
H    29.701957   30.632435   36.865609
C    30.058957   28.874435   35.607609
Cl   28.744957   27.860435   36.220609
C    30.692957   28.476435   34.481609
H    30.715957   27.416435   34.239609
C    31.656957   29.234435   33.868609
H    32.353957   28.710435   33.220609
C    31.820957   30.567435   34.321609
H    32.598957   31.211435   33.919609
