13        
Initial atomic coordinates
O    31.081957   31.175935   34.427609
H    31.643957   31.620935   33.767609
C    30.735957   29.976935   34.054609
C    29.747957   29.335935   34.808609
H    29.257957   29.948935   35.561609
C    29.375957   28.057935   34.461609
Cl   28.197957   27.137934   35.326609
C    30.112957   27.386935   33.494609
H    29.956957   26.329934   33.296609
C    31.100957   28.062935   32.668609
H    31.587957   27.506935   31.872609
C    31.480957   29.388935   33.045609
H    32.220957   29.951935   32.481609
