13        
Initial atomic coordinates
O    30.641457   30.923935   36.168109
H    31.016457   31.546935   35.520109
C    30.393457   29.784935   35.506109
C    29.502457   28.853935   35.924109
H    28.921457   29.014935   36.829109
C    29.307457   27.703935   35.149109
Cl   28.099457   26.588934   35.719109
C    30.047457   27.376935   34.042109
H    29.757457   26.513934   33.449109
C    30.982457   28.310935   33.628109
H    31.678457   28.111935   32.816109
C    31.108457   29.488935   34.343109
H    31.881457   30.223935   34.130109
