13        
Initial atomic coordinates
O    30.576957   31.888935   36.178609
H    30.764957   32.713935   35.694609
C    30.786957   30.780935   35.457609
C    30.014957   29.670935   35.908609
H    29.289957   29.780935   36.709609
C    30.259957   28.434935   35.333609
Cl   29.673957   26.942934   35.981609
C    31.072957   28.333935   34.194609
H    31.206957   27.346935   33.761609
C    31.694957   29.505935   33.672609
H    32.388957   29.394935   32.842609
C    31.615957   30.725935   34.345609
H    32.202957   31.563935   33.981609
