13        
Initial atomic coordinates
O    34.610957   32.022435   32.272609
H    35.069957   32.880435   32.324609
C    33.354957   32.400435   31.782609
C    32.237957   31.774435   32.233609
H    32.337957   30.954435   32.939609
C    31.020957   32.121435   31.763609
Cl   29.648957   31.199435   32.440609
C    30.856957   33.172435   30.872609
H    29.878957   33.492435   30.521609
C    32.013957   33.786435   30.367609
H    31.906957   34.636435   29.698608
C    33.265957   33.454435   30.866609
H    34.138957   34.016435   30.542609
