13        
Initial atomic coordinates
O    33.861957   32.139435   33.676109
H    33.929957   33.104435   33.794109
C    32.546957   31.755435   33.593109
C    32.171957   30.444435   33.963109
H    32.888957   29.719435   34.342109
C    30.898957   30.036435   33.706109
Cl   30.518957   28.360435   34.058109
C    29.882957   30.850435   33.148109
H    28.943957   30.478435   32.742109
C    30.245957   32.203435   32.894109
H    29.586957   32.947435   32.455109
C    31.576957   32.589435   33.043109
H    31.849957   33.508435   32.531109
