13        
Initial atomic coordinates
O    34.105457   32.337935   33.653609
H    34.658457   33.085935   33.365609
C    32.821457   32.210935   33.185609
C    31.998457   31.242935   33.783609
H    32.369457   30.456935   34.435609
C    30.629457   31.208935   33.442609
Cl   29.435457   30.163935   34.089609
C    30.155457   31.987935   32.471609
H    29.086457   31.995935   32.281609
C    30.974457   32.949935   31.806609
H    30.584457   33.629935   31.053609
C    32.283457   33.061935   32.294609
H    32.959457   33.806935   31.883609
