13        
Initial atomic coordinates
O    29.393957   32.192935   36.324609
H    29.880957   32.872935   35.824609
C    29.390957   31.013935   35.632609
C    28.707957   29.874935   36.019609
H    28.173957   29.846935   36.966609
C    28.797957   28.677935   35.267609
Cl   27.798957   27.421935   35.930609
C    29.458957   28.704935   34.040609
H    29.273957   27.868935   33.369609
C    30.151957   29.836935   33.649609
H    30.701957   29.853935   32.712609
C    30.183957   30.953935   34.489609
H    30.637957   31.877935   34.141609
