13        
Initial atomic coordinates
O    34.784457   33.262935   33.787109
H    35.243457   34.120935   33.835109
C    33.733457   33.175935   32.884109
C    32.716457   32.183935   33.160109
H    32.743457   31.649935   34.105109
C    31.490457   32.256935   32.415109
Cl   30.318457   31.045935   32.727109
C    31.411457   33.229935   31.392109
H    30.497457   33.393935   30.825109
C    32.504457   34.026935   30.980109
H    32.428457   34.718935   30.145109
C    33.602457   34.094935   31.812109
H    34.463457   34.738935   31.651109
