13        
Initial atomic coordinates
O    31.897957   31.394435   36.360609
H    32.118957   32.118435   35.747609
C    31.675957   30.185435   35.763609
C    30.759957   29.251435   36.216609
H    30.323957   29.471435   37.186609
C    30.547957   28.058435   35.528609
Cl   29.368957   26.941434   35.946609
C    31.297957   27.880435   34.345609
H    31.248957   26.993434   33.719609
C    32.146957   28.868435   33.889609
H    32.690957   28.862435   32.947609
C    32.331957   30.013435   34.591609
H    33.043957   30.753435   34.232609
