13        
Initial atomic coordinates
O    33.603457   32.516935   31.993609
H    34.250457   32.389935   32.709609
C    32.396457   32.109935   32.400609
C    32.276457   31.209935   33.486609
H    33.135457   30.946935   34.098609
C    31.033457   30.798935   33.816609
Cl   30.882457   29.620935   35.096609
C    29.879457   31.253935   33.139609
H    28.926457   30.874935   33.499609
C    30.064457   32.221935   32.161609
H    29.157457   32.646935   31.738609
C    31.353457   32.586935   31.667609
H    31.549457   33.266935   30.842609
