13        
Initial atomic coordinates
O    32.016957   31.844435   36.723609
H    32.403957   32.578435   36.212609
C    32.311957   30.735435   35.984609
C    31.604957   29.569435   36.375609
H    30.959957   29.602435   37.250609
C    31.742957   28.437435   35.593609
Cl   30.914957   26.981434   36.113609
C    32.598957   28.420435   34.475609
H    32.973957   27.455435   34.147609
C    33.217957   29.606435   34.058609
H    33.841957   29.552435   33.171609
C    33.024957   30.749435   34.825609
H    33.440957   31.688435   34.469609
