15        
Initial atomic coordinates
C    31.395989   30.953963   32.957593
H    31.227989   30.158963   32.235593
C    32.343989   32.009963   32.803593
H    32.965990   32.008963   31.912593
C    32.497989   32.941963   33.855593
H    33.121990   33.814963   33.677593
C    31.704989   32.889963   34.973593
H    31.718989   33.665963   35.734593
C    30.825989   31.805963   35.152593
H    30.253989   31.713963   36.072593
C    30.641989   30.854963   34.105593
C    29.709989   29.652963   34.333593
H    30.130989   28.722963   33.947593
H    29.645989   29.500963   35.413593
H    28.720989   29.918963   33.956593
