15        
Initial atomic coordinates
C    34.231490   29.531463   39.132093
H    34.197490   30.535463   39.546093
C    34.757490   28.479463   39.813093
H    35.185490   28.664463   40.794094
C    34.676490   27.122463   39.312093
H    35.020490   26.315463   39.955094
C    34.052490   26.901463   38.115093
H    33.954490   25.947463   37.605093
C    33.446490   27.985463   37.476093
H    32.776489   27.782463   36.644093
C    33.552490   29.285463   37.965093
C    32.889490   30.430463   37.258093
H    31.869489   30.693463   37.546093
H    33.514490   31.321463   37.328093
H    32.771489   30.184463   36.202093
