15        
Initial atomic coordinates
C    31.961489   28.411463   34.990593
H    31.803489   27.363463   34.747593
C    32.979490   29.079463   34.297593
H    33.762490   28.588463   33.726593
C    33.081490   30.453463   34.342593
H    33.695490   31.037463   33.661593
C    32.168489   31.185463   35.130593
H    32.118489   32.270463   35.076593
C    31.176489   30.572463   35.825593
H    30.497489   31.195463   36.401593
C    31.092489   29.123463   35.767593
C    29.878489   28.499463   36.453593
H    28.971489   28.841463   35.948593
H    29.921489   27.416463   36.312593
H    29.906489   28.633463   37.536593
