15        
Initial atomic coordinates
C    29.522989   29.397463   36.880093
H    28.700989   29.259463   37.577093
C    29.582989   28.668463   35.705093
H    28.964989   27.778463   35.617093
C    30.531989   29.052463   34.741093
H    30.522989   28.528463   33.788093
C    31.373989   30.134463   34.990093
H    32.063989   30.404463   34.193093
C    31.295989   30.791463   36.204093
H    31.922989   31.638463   36.469093
C    30.419989   30.439463   37.205093
C    30.446989   31.114463   38.518093
H    31.112989   31.979463   38.555093
H    29.464989   31.477463   38.828093
H    30.877989   30.393463   39.213093
