15        
Initial atomic coordinates
C    33.221490   27.485963   34.096093
H    33.337490   26.405963   34.135093
C    34.008490   28.233963   33.186093
H    34.792490   27.804963   32.567093
C    33.881490   29.658963   33.238093
H    34.549490   30.359963   32.744093
C    33.072490   30.292963   34.228093
H    33.131490   31.374963   34.315093
C    32.224489   29.492963   35.026093
H    31.641489   29.860963   35.867093
C    32.312489   28.100963   34.970093
C    31.453489   27.267963   35.877093
H    30.487489   26.941963   35.488093
H    31.919489   26.376963   36.304093
H    31.044489   27.862963   36.697093
