15        
Initial atomic coordinates
C    31.992989   30.469463   34.639093
H    32.223989   30.311463   33.589093
C    32.790989   31.391463   35.262093
H    33.539990   31.935463   34.693093
C    32.553989   31.721463   36.601093
H    33.252990   32.436463   37.026093
C    31.470989   31.153463   37.278093
H    31.278989   31.363463   38.328093
C    30.703989   30.205463   36.615093
H    29.900989   29.728463   37.172093
C    31.021989   29.816463   35.315093
C    30.130989   28.791463   34.663093
H    30.286989   28.736463   33.584093
H    30.249989   27.784463   35.068093
H    29.067989   29.016463   34.778093
