15        
Initial atomic coordinates
C    31.866489   30.986463   33.424093
H    32.138489   30.091463   32.870093
C    32.377489   32.265463   33.097093
H    33.215490   32.437463   32.426093
C    31.890489   33.400463   33.767093
H    32.371489   34.362463   33.605093
C    30.789489   33.304463   34.652093
H    30.412489   34.235463   35.068093
C    30.193489   32.037463   34.840093
H    29.239489   31.964463   35.357093
C    30.861489   30.929463   34.328093
C    30.216489   29.528463   34.536093
H    29.830489   29.525463   35.556093
H    29.418489   29.321463   33.819093
H    30.964489   28.734463   34.486093
