15        
Initial atomic coordinates
C    31.878989   28.675463   36.555093
H    31.373989   29.027463   37.451093
C    31.676989   27.397463   36.072093
H    31.064989   26.644463   36.564093
C    32.133989   27.058463   34.835093
H    32.006989   26.044463   34.464093
C    32.817989   27.989463   34.039093
H    33.112990   27.689463   33.037093
C    33.056990   29.306463   34.498093
H    33.483990   30.034463   33.811093
C    32.599989   29.591463   35.768093
C    32.805989   31.003463   36.293093
H    33.085990   31.775463   35.573093
H    31.851989   31.322463   36.720093
H    33.579990   30.868463   37.053093
