15        
Initial atomic coordinates
C    30.653989   29.522463   34.317093
H    30.117989   28.938463   33.573093
C    31.564989   30.504463   33.927093
H    31.775989   30.680463   32.875093
C    32.182989   31.296463   34.949093
H    32.947990   32.022463   34.683093
C    31.679989   31.271463   36.259093
H    32.041989   31.938463   37.037093
C    30.717989   30.315463   36.628093
H    30.304989   30.324463   37.634093
C    30.282989   29.402463   35.655093
C    29.355989   28.292463   36.105093
H    29.825989   27.331463   35.889093
H    29.213989   28.472463   37.173093
H    28.360989   28.454463   35.683093
