15        
Initial atomic coordinates
C    32.322489   29.151463   35.376093
H    31.586489   28.434463   35.729093
C    32.721489   29.162463   34.048093
H    32.459489   28.306463   33.432093
C    33.691490   30.105463   33.600093
H    33.981490   30.054463   32.554093
C    34.052490   31.101463   34.457093
H    34.765490   31.868463   34.166093
C    33.602490   31.153463   35.802093
H    33.993490   31.963463   36.413093
C    32.701489   30.192463   36.201093
C    32.145489   30.274463   37.641093
H    32.963490   30.124463   38.348093
H    31.673489   31.229463   37.883093
H    31.460489   29.439463   37.807093
