15        
Initial atomic coordinates
C    30.190989   29.487963   34.556593
H    29.911989   30.182963   35.344593
C    29.701989   28.165963   34.594593
H    29.090989   27.871963   35.444593
C    29.950989   27.357963   33.511593
H    29.553989   26.348963   33.441593
C    30.645989   27.832963   32.366593
H    30.903989   27.168963   31.545593
C    31.252989   29.102963   32.459593
H    31.853989   29.380963   31.597593
C    30.967989   29.936963   33.540593
C    31.175989   31.415963   33.451593
H    30.330989   31.903963   32.961593
H    31.391989   31.923963   34.394593
H    31.960989   31.624963   32.721593
