15        
Initial atomic coordinates
C    32.933990   29.985463   34.341093
H    32.598989   29.327463   33.543093
C    34.117990   30.803463   34.190093
H    34.801990   30.692463   33.353093
C    34.599990   31.519463   35.215093
H    35.477990   32.137463   35.043093
C    33.912990   31.548463   36.456093
H    34.227990   32.249463   37.225093
C    32.758989   30.748463   36.589093
H    32.263989   30.705463   37.556093
C    32.241989   30.024463   35.511093
C    31.030989   29.169463   35.760093
H    31.103989   28.720463   36.752093
H    30.156989   29.824463   35.722093
H    30.954989   28.354463   35.037093
