15        
Initial atomic coordinates
C    32.083489   29.219963   33.137093
H    32.229489   28.464963   32.369093
C    32.840489   30.376963   33.055093
H    33.609490   30.417963   32.288093
C    32.516489   31.377963   33.959093
H    33.004490   32.347963   33.994093
C    31.519489   31.175963   34.910093
H    31.314489   31.944963   35.650093
C    30.661489   30.052963   34.893093
H    29.889489   29.986963   35.656093
C    31.051489   29.005963   34.033093
C    30.303489   27.721963   34.067093
H    30.984489   26.898963   34.296093
H    29.425489   27.762963   34.716093
H    30.117489   27.485963   33.018093
