15        
Initial atomic coordinates
C    31.637489   29.804963   34.812093
H    31.428489   28.830963   34.376093
C    32.537489   30.755963   34.155093
H    32.991490   30.520963   33.195093
C    32.783489   31.995963   34.702093
H    33.363490   32.728963   34.146093
C    32.374489   32.253963   35.999093
H    32.705489   33.200963   36.418093
C    31.660489   31.355963   36.774093
H    31.449489   31.579963   37.817093
C    31.223489   30.126963   36.153093
C    30.320489   29.231963   36.931093
H    29.737489   28.607963   36.252093
H    30.867489   28.499963   37.530093
H    29.601489   29.838963   37.486093
