15        
Initial atomic coordinates
C    31.090489   30.226463   34.654093
H    31.092489   29.334463   34.033093
C    31.831489   31.344463   34.444093
H    32.502489   31.428463   33.593093
C    31.885489   32.379463   35.349093
H    32.577489   33.197463   35.165093
C    31.056489   32.354463   36.461093
H    30.995489   33.214463   37.122093
C    30.319489   31.223463   36.748093
H    29.727489   31.166463   37.658093
C    30.426489   30.182463   35.890093
C    29.666489   28.903463   36.348093
H    30.143489   27.954463   36.094093
H    29.577489   28.808463   37.433093
H    28.645489   28.909463   35.960093
