15        
Initial atomic coordinates
C    32.250989   28.869963   36.666593
H    32.112989   29.361963   37.625593
C    31.955989   27.514963   36.606593
H    31.384989   27.169963   37.465593
C    32.082989   26.863963   35.376593
H    31.581989   25.920963   35.173593
C    32.604989   27.516963   34.289593
H    32.776989   26.937963   33.385593
C    32.809989   28.896963   34.312593
H    33.109990   29.461963   33.433593
C    32.701989   29.573963   35.515593
C    32.889990   31.006963   35.516593
H    33.127990   31.384963   34.520593
H    32.051989   31.536963   35.972593
H    33.720990   31.160963   36.207593
