15        
Initial atomic coordinates
C    31.523989   29.628463   36.151593
H    31.126989   30.229463   36.966593
C    31.054989   28.262463   36.115593
H    30.467989   27.834463   36.923593
C    31.486989   27.509463   34.994593
H    31.224989   26.458463   34.914593
C    32.226989   28.106463   33.927593
H    32.448989   27.342463   33.186593
C    32.680989   29.429463   34.069593
H    33.299990   29.813463   33.263593
C    32.289989   30.175463   35.121593
C    32.784989   31.592463   35.168593
H    32.650989   32.057463   36.147593
H    33.763990   31.554463   34.686593
H    32.216989   32.210463   34.470593
