15        
Initial atomic coordinates
C    32.121989   30.247963   33.679593
H    31.980989   29.805963   32.696593
C    32.968990   31.354963   33.948593
H    33.532990   31.773963   33.119593
C    32.951990   31.935963   35.204593
H    33.648990   32.746963   35.399593
C    32.139989   31.376963   36.187593
H    32.126989   31.883963   37.147593
C    31.365989   30.208963   35.969593
H    30.791989   29.719963   36.752593
C    31.263989   29.757963   34.680593
C    30.222989   28.698963   34.337593
H    29.839989   28.140963   35.195593
H    29.290989   29.097963   33.932593
H    30.623989   27.946963   33.656593
