15        
Initial atomic coordinates
C    31.245989   28.580463   34.092593
H    30.923989   27.952463   33.266593
C    31.904989   29.793463   33.886593
H    32.353989   30.006463   32.920593
C    32.124989   30.610463   34.987593
H    32.795989   31.451463   34.835593
C    31.621989   30.239463   36.280593
H    31.852989   30.945463   37.074593
C    30.858989   29.084463   36.431593
H    30.511989   28.686463   37.381593
C    30.742989   28.231463   35.370593
C    30.119989   26.889463   35.536593
H    30.915989   26.159463   35.698593
H    29.470989   26.864463   36.414593
H    29.474989   26.783463   34.661593
