15        
Initial atomic coordinates
C    31.576989   28.660463   35.826093
H    30.908989   29.245463   36.451093
C    31.257989   27.315463   35.615093
H    30.503989   26.826463   36.226093
C    31.998989   26.558463   34.703093
H    31.668989   25.545463   34.488093
C    33.007990   27.174463   33.936093
H    33.563990   26.678463   33.145093
C    33.266990   28.531463   34.087093
H    34.013990   29.045463   33.488093
C    32.577989   29.252463   35.101093
C    32.987990   30.690463   35.457093
H    33.648990   31.032463   34.658093
H    32.196989   31.434463   35.354093
H    33.434990   30.840463   36.442093
