15        
Initial atomic coordinates
C    31.569489   29.283463   33.746593
H    31.317489   28.444463   33.104593
C    32.648489   30.112463   33.400593
H    33.125490   29.914463   32.444593
C    32.858489   31.261463   34.129593
H    33.595490   32.036463   33.932593
C    32.138489   31.506463   35.313593
H    32.418489   32.325463   35.969593
C    31.094489   30.633463   35.663593
H    30.502489   30.874463   36.541593
C    30.834489   29.509463   34.899593
C    29.704489   28.563463   35.324593
H    29.922489   27.546463   34.993593
H    29.539489   28.712463   36.393593
H    28.761489   28.776463   34.818593
