15        
Initial atomic coordinates
C    30.474489   29.476963   36.052093
H    30.426489   30.057963   36.969093
C    30.086489   28.169963   36.035093
H    29.826489   27.716963   36.987093
C    30.074489   27.528963   34.828093
H    29.597489   26.551963   34.829093
C    30.655489   28.182963   33.651093
H    30.835489   27.625963   32.735093
C    31.313489   29.435963   33.838093
H    31.890489   29.831963   33.006093
C    31.206489   30.148963   35.045093
C    31.735489   31.608963   35.143093
H    31.514489   32.098963   36.093093
H    32.813489   31.455963   35.066093
H    31.444489   32.190963   34.267093
