15        
Initial atomic coordinates
C    31.411989   28.878463   34.181593
H    31.232989   28.239463   33.320593
C    32.022989   30.134463   33.917593
H    32.249989   30.455463   32.903593
C    32.189989   31.036463   34.960593
H    32.649989   32.003463   34.773593
C    31.804989   30.742463   36.216593
H    31.833989   31.572463   36.917593
C    31.296989   29.450463   36.446593
H    31.103989   29.217463   37.490593
C    31.132989   28.468463   35.498593
C    30.736989   27.131463   35.914593
H    29.810989   27.351463   36.450593
H    30.603989   26.452463   35.069593
H    31.496989   26.738463   36.593593
