15        
Initial atomic coordinates
C    33.300990   30.909963   33.480593
H    33.735990   30.275963   32.712593
C    33.791990   32.301963   33.559593
H    34.488990   32.747963   32.854593
C    33.271990   33.122963   34.499593
H    33.563990   34.166963   34.581593
C    32.347989   32.565963   35.414593
H    32.029989   33.165963   36.263593
C    31.795989   31.322963   35.284593
H    30.973989   31.056963   35.944593
C    32.387989   30.367963   34.416593
C    31.855989   29.006963   34.303593
H    31.203989   28.793963   35.152593
H    31.170989   28.830963   33.471593
H    32.549989   28.166963   34.233593
