15        
Initial atomic coordinates
C    31.896489   30.533463   34.947093
H    32.292489   31.544463   34.958093
C    31.201489   29.938463   35.998093
H    31.118489   30.461463   36.948093
C    30.535489   28.711463   35.874093
H    29.960489   28.245463   36.670093
C    30.581489   28.023463   34.642093
H    30.057489   27.074463   34.564093
C    31.361489   28.540463   33.606093
H    31.485489   28.031463   32.653093
C    31.991489   29.807463   33.753093
C    32.765489   30.465463   32.610093
H    33.597490   29.861463   32.243093
H    32.053489   30.368463   31.789093
H    33.044490   31.485463   32.886093
