15        
Initial atomic coordinates
C    31.452489   31.138963   34.245093
H    31.213489   30.341963   33.545093
C    32.378489   32.140963   34.020093
H    33.037490   32.169963   33.156093
C    32.522489   33.125963   34.970093
H    33.320490   33.834963   34.767093
C    31.632489   33.209963   36.045093
H    31.673489   34.053963   36.730093
C    30.704489   32.204963   36.243093
H    30.010489   32.173963   37.079093
C    30.596489   31.177963   35.373093
C    29.641489   30.012963   35.599093
H    30.055489   29.117963   35.130093
H    29.533489   29.667963   36.629093
H    28.631489   30.236963   35.247093
