14        
Initial atomic coordinates
F    32.053416   27.644950   35.142635
C    31.726416   28.372950   36.245635
C    30.934416   27.667950   37.173635
H    30.544416   26.660950   37.052635
C    30.523416   28.329950   38.278636
H    29.879416   27.979950   39.080636
C    30.975416   29.628950   38.481636
H    30.834416   30.211950   39.388636
C    31.838416   30.300950   37.581635
H    32.171416   31.289950   37.885635
C    32.208416   29.624950   36.433635
N    32.926416   30.238950   35.487635
H    33.275416   31.187950   35.556635
H    33.288416   29.631950   34.761635
