14        
Initial atomic coordinates
F    31.379916   28.721450   33.915635
C    30.758916   29.559450   34.826635
C    29.665916   29.105450   35.596635
H    29.264916   28.113450   35.408635
C    29.056916   29.882450   36.540635
H    28.136916   29.628450   37.060635
C    29.557916   31.108450   36.814635
H    29.165916   31.718450   37.625635
C    30.709916   31.577450   36.186635
H    31.133916   32.495451   36.583635
C    31.307916   30.829450   35.151635
N    32.176916   31.524450   34.320635
H    32.191916   32.536451   34.382635
H    32.318916   31.191450   33.373635
