14        
Initial atomic coordinates
F    32.347916   28.053450   34.967135
C    31.768916   28.947450   35.808135
C    30.794916   28.390450   36.585135
H    30.474916   27.360450   36.458135
C    30.165916   29.157450   37.640135
H    29.519916   28.667450   38.363136
C    30.587916   30.496450   37.713135
H    30.089916   31.180450   38.395136
C    31.464916   31.064450   36.777135
H    31.651916   32.133450   36.718135
C    32.090916   30.264450   35.843135
N    32.970916   30.760450   34.896135
H    33.158916   31.749450   34.777135
H    33.171916   30.154450   34.108135
