14        
Initial atomic coordinates
F    32.885416   27.970450   34.643135
C    32.302416   28.661450   35.606135
C    31.329416   28.052450   36.431135
H    31.135416   26.984450   36.372135
C    30.792416   28.818450   37.431135
H    29.989416   28.494450   38.088136
C    31.135416   30.151450   37.629135
H    30.690416   30.835450   38.347136
C    32.078416   30.699450   36.834135
H    32.351416   31.744450   36.955135
C    32.670416   29.966450   35.823135
N    33.721416   30.505450   35.122135
H    34.114416   31.383450   35.440135
H    34.319416   29.854450   34.626135
