14        
Initial atomic coordinates
F    33.209416   29.250450   33.776635
C    32.871416   30.064450   34.863635
C    31.817416   29.577450   35.655635
H    31.315416   28.650450   35.388635
C    31.327416   30.374450   36.703635
H    30.555416   29.984450   37.361635
C    31.869416   31.614450   36.964635
H    31.368416   32.130450   37.778635
C    32.937416   32.090450   36.197635
H    33.363416   33.077451   36.353635
C    33.440416   31.320450   35.118635
N    34.368416   31.831450   34.317635
H    34.084416   32.777451   34.083635
H    34.565416   31.373450   33.433635
