14        
Initial atomic coordinates
F    32.364416   27.577950   35.397635
C    31.716416   28.413950   36.280635
C    30.724416   27.917950   37.142635
H    30.563416   26.849950   37.016635
C    30.076416   28.775950   38.034636
H    29.310416   28.328950   38.661636
C    30.406416   30.134950   38.126636
H    29.945416   30.696950   38.934636
C    31.518416   30.566950   37.345635
H    31.892416   31.566950   37.549635
C    32.092416   29.756950   36.350635
N    33.113416   30.326950   35.650635
H    33.452416   31.246950   35.909635
H    33.103416   30.193950   34.644635
