14        
Initial atomic coordinates
F    31.963916   28.941450   34.425135
C    31.663916   30.146450   34.897135
C    30.586916   30.157450   35.748135
H    29.993916   29.256450   35.878135
C    30.380916   31.293450   36.533135
H    29.546916   31.340450   37.229135
C    31.057916   32.440451   36.277135
H    30.892916   33.382451   36.794135
C    32.024916   32.453451   35.214135
H    32.564916   33.381451   35.042135
C    32.385916   31.267450   34.582135
N    33.350916   31.263450   33.612135
H    34.081916   31.960450   33.702135
H    33.550916   30.433450   33.065135
