14        
Initial atomic coordinates
F    32.555916   28.956950   34.520635
C    32.012916   29.618950   35.621635
C    31.155916   28.936950   36.486635
H    30.873916   27.888950   36.425635
C    30.509916   29.518950   37.539635
H    29.772916   28.996950   38.144636
C    30.833916   30.864950   37.821635
H    30.377916   31.451950   38.614636
C    31.735916   31.581950   37.014635
H    32.044916   32.601951   37.224635
C    32.361916   30.938950   35.900635
N    33.102916   31.653950   34.945635
H    33.646916   32.427951   35.311635
H    33.466916   31.192950   34.118635
