14        
Initial atomic coordinates
F    32.737416   29.050450   34.162135
C    32.461416   29.520450   35.340135
C    31.449416   28.931450   36.100135
H    30.934416   28.047450   35.733135
C    31.257416   29.414450   37.380135
H    30.589416   28.933450   38.089136
C    31.994416   30.498450   37.863135
H    31.863416   30.854450   38.882136
C    32.882416   31.142450   37.027135
H    33.446416   31.984450   37.420135
C    33.159416   30.664450   35.793135
N    34.104416   31.253450   35.007135
H    34.443416   32.148450   35.344135
H    34.194416   30.911450   34.057135
