14        
Initial atomic coordinates
F    31.769416   30.085450   35.251635
C    31.491416   30.785450   36.304635
C    30.499416   30.327450   37.142635
H    29.850416   29.543450   36.761635
C    30.208416   30.996450   38.291636
H    29.405416   30.691450   38.957636
C    30.935416   32.073450   38.663636
H    30.672416   32.658451   39.541636
C    31.865416   32.608451   37.779635
H    32.446416   33.504451   37.983636
C    32.156416   31.964450   36.624635
N    33.011416   32.473451   35.733635
H    33.411416   33.395451   35.860635
H    33.192416   31.938450   34.891635
