14        
Initial atomic coordinates
F    30.919416   29.007950   33.676135
C    30.836416   29.719950   34.840135
C    30.168416   29.074950   35.869135
H    29.601416   28.171950   35.660135
C    30.109416   29.703950   37.131135
H    29.642416   29.214950   37.983136
C    30.852416   30.885950   37.413135
H    30.880416   31.307950   38.414136
C    31.589416   31.489950   36.359135
H    32.188416   32.386951   36.495135
C    31.504416   30.961950   35.081135
N    32.306416   31.519950   34.109135
H    32.468416   32.497951   34.320135
H    32.278416   31.219950   33.141135
