14        
Initial atomic coordinates
F    30.479916   29.311450   34.169135
C    29.954916   29.933450   35.287135
C    29.156916   29.271450   36.249135
H    28.869916   28.272450   35.931135
C    28.810916   29.926450   37.460135
H    28.154916   29.419450   38.163136
C    29.248916   31.217450   37.664135
H    28.817916   31.718450   38.527136
C    30.095916   31.849450   36.792135
H    30.605916   32.787451   36.998135
C    30.417916   31.201450   35.565135
N    31.335916   31.783450   34.751135
H    31.850916   32.531451   35.203135
H    31.673916   31.238450   33.966135
