14        
Initial atomic coordinates
F    30.931416   32.221450   32.463135
C    31.340416   32.227450   33.742135
C    30.468416   31.762450   34.663135
H    29.512416   31.351450   34.351135
C    30.804416   31.665450   36.045135
H    29.984416   31.373450   36.697135
C    32.056416   32.190450   36.388135
H    32.247416   32.271451   37.455135
C    32.974416   32.610451   35.445135
H    33.909416   33.078451   35.742135
C    32.561416   32.677451   34.115135
N    33.283416   33.374451   33.167135
H    34.226416   33.644451   33.423135
H    32.987416   33.547451   32.213135
