16        
Initial atomic coordinates
O    31.441596   32.053505   35.502399
H    32.113596   32.500506   34.955399
C    30.453596   31.632505   34.726399
C    29.597596   30.809505   35.400399
H    29.843596   30.458505   36.398399
C    28.385595   30.469505   34.919399
H    27.639595   29.849505   35.410399
C    28.087595   31.036505   33.695399
H    27.077595   31.007505   33.296399
C    28.951595   31.857505   32.933399
H    28.591595   32.453506   32.098399
C    30.174596   32.208505   33.455399
C    31.066596   33.223506   32.736399
H    32.066596   32.816506   32.569399
H    30.813596   33.408506   31.690399
H    31.108596   34.091506   33.399399
