16        
Initial atomic coordinates
O    33.124096   32.956506   32.773899
H    34.001096   33.186506   33.128899
C    32.385096   32.220505   33.653899
C    33.008096   31.827505   34.819899
H    34.068096   31.998505   34.990899
C    32.286096   31.200505   35.816899
H    32.784096   30.886505   36.729899
C    30.908096   31.025505   35.703899
H    30.408096   30.523505   36.527899
C    30.320096   31.399505   34.509899
H    29.260095   31.232505   34.342899
C    31.024096   32.039505   33.504899
C    30.298096   32.397506   32.249899
H    31.053096   32.805506   31.575899
H    29.978096   31.489505   31.733899
H    29.501096   33.103506   32.491899
