16        
Initial atomic coordinates
O    31.690096   31.933005   35.224399
H    31.992096   32.554006   34.537399
C    30.877096   30.933005   34.717399
C    30.235096   30.027005   35.582399
H    30.436096   30.105005   36.648399
C    29.258095   29.158005   35.078399
H    28.661095   28.525005   35.729399
C    28.835095   29.315005   33.730399
H    27.990095   28.725005   33.385399
C    29.571096   30.005005   32.825399
H    29.323095   29.928005   31.770399
C    30.627096   30.833005   33.285399
C    31.376096   31.780005   32.378399
H    31.001096   31.847005   31.354399
H    31.210096   32.815006   32.684399
H    32.459096   31.681005   32.483399
