16        
Initial atomic coordinates
O    32.595596   32.135505   33.714899
H    33.525596   32.151505   34.003899
C    31.815596   31.544505   34.655899
C    32.327596   31.174505   35.858899
H    33.363596   31.364505   36.127899
C    31.420596   30.525505   36.722899
H    31.856596   30.269505   37.685899
C    30.150596   30.210505   36.346899
H    29.541596   29.719505   37.101899
C    29.641596   30.527505   35.108899
H    28.575595   30.379505   34.968899
C    30.482596   31.244505   34.251899
C    29.885596   31.684505   32.963899
H    29.918596   30.770505   32.367899
H    28.847595   31.955505   33.166899
H    30.282596   32.618506   32.557899
