16        
Initial atomic coordinates
O    33.092096   32.905506   32.869399
H    33.829096   33.362506   33.313399
C    32.253096   32.269506   33.773399
C    32.767096   32.049505   35.095399
H    33.701096   32.539506   35.365399
C    31.949096   31.464505   35.996399
H    32.276096   31.273505   37.014399
C    30.652096   30.958505   35.609399
H    30.058096   30.461505   36.371399
C    30.264096   30.977505   34.306399
H    29.364095   30.420505   34.056399
C    31.039096   31.683505   33.387399
C    30.573096   31.724505   31.911399
H    30.210096   30.707505   31.749399
H    29.834096   32.505506   31.722399
H    31.440096   31.854505   31.259399
