16        
Initial atomic coordinates
O    31.533096   32.615506   33.863899
H    32.246096   33.002506   34.400899
C    30.698096   32.044505   34.828899
C    31.324096   31.588505   35.958899
H    32.406096   31.684505   36.018899
C    30.556096   30.917505   36.914899
H    30.990096   30.455505   37.798899
C    29.132095   30.889505   36.727899
H    28.498095   30.555505   37.544899
C    28.591095   31.352505   35.562899
H    27.546095   31.136505   35.354899
C    29.321095   31.981505   34.578899
C    28.750095   32.332506   33.258899
H    28.091095   33.190506   33.408899
H    29.457096   32.670506   32.498899
H    28.213095   31.485505   32.826899
