16        
Initial atomic coordinates
O    33.263596   32.737506   32.409399
H    33.828596   32.253505   33.038399
C    32.027596   32.696506   32.973399
C    31.998596   32.182505   34.249399
H    32.827596   31.759505   34.810399
C    30.760596   32.203505   34.922399
H    30.632596   31.782505   35.916399
C    29.615596   32.584506   34.215399
H    28.640595   32.586506   34.694399
C    29.700596   33.087506   32.915399
H    28.780595   33.431506   32.452399
C    30.914596   33.094506   32.236399
C    30.970596   33.709506   30.843399
H    30.226596   33.244506   30.194399
H    30.752596   34.766506   31.009399
H    31.926596   33.467506   30.373399
