16        
Initial atomic coordinates
O    33.301096   32.836006   31.725399
H    33.999096   33.337006   32.186399
C    32.477096   32.454006   32.672399
C    32.945096   31.923005   33.848399
H    33.994096   32.075005   34.091399
C    32.081096   31.358005   34.773399
H    32.372096   30.945005   35.734399
C    30.728096   31.094005   34.409399
H    30.169096   30.359005   34.983399
C    30.168096   31.650005   33.206399
H    29.086095   31.624005   33.107399
C    31.127096   32.258005   32.411399
C    30.505096   32.936006   31.246399
H    29.781096   32.242005   30.815399
H    29.889096   33.790006   31.534399
H    31.159096   33.362006   30.483399
