16        
Initial atomic coordinates
O    32.295096   31.478005   33.563899
H    32.893096   32.106005   34.008899
C    31.477096   31.075005   34.499899
C    31.932096   30.747005   35.760899
H    32.981096   30.915005   35.990899
C    31.154096   30.379005   36.779899
H    31.569096   30.298005   37.780899
C    29.758096   30.208005   36.547899
H    29.008095   29.891005   37.267899
C    29.288095   30.460005   35.259899
H    28.220095   30.363005   35.085899
C    30.097096   30.908005   34.232899
C    29.416095   31.421005   32.906899
H    28.491095   31.943005   33.160899
H    30.126096   32.106005   32.440899
H    29.175095   30.730005   32.096899
