16        
Initial atomic coordinates
O    32.434096   32.523506   35.843399
H    32.892096   32.855506   35.050399
C    31.768096   31.350505   35.601399
C    31.173096   30.671505   36.627399
H    31.393096   31.076505   37.611399
C    30.628096   29.387505   36.409399
H    30.111096   28.830505   37.185399
C    30.582096   28.881505   35.147399
H    30.261096   27.869505   34.913399
C    31.091096   29.594505   34.098399
H    30.988096   29.167505   33.104399
C    31.728096   30.806505   34.307399
C    32.468096   31.502505   33.154399
H    32.454096   30.828505   32.296399
H    31.833096   32.348506   32.880399
H    33.402096   32.037505   33.335399
