16        
Initial atomic coordinates
O    31.554096   32.478506   33.247399
H    32.172096   32.857506   33.897399
C    31.154096   31.251505   33.748399
C    31.571096   30.765505   34.991399
H    32.366096   31.284505   35.521399
C    30.980096   29.716505   35.647399
H    31.252096   29.447505   36.664399
C    30.085096   28.946505   34.953399
H    29.643096   28.050505   35.381399
C    29.527096   29.490505   33.813399
H    28.700095   28.932505   33.382399
C    30.101096   30.544505   33.145399
C    29.446096   30.986505   31.824399
H    28.440095   31.393505   31.938399
H    30.089096   31.685505   31.285399
H    29.355095   30.105505   31.185399
