16        
Initial atomic coordinates
O    31.765096   32.962506   35.112899
H    31.962096   33.719506   34.530899
C    30.607096   32.301506   34.811899
C    29.964096   31.704505   35.883899
H    30.417096   31.934505   36.844899
C    28.931095   30.812505   35.625899
H    28.455095   30.400505   36.512899
C    28.540095   30.503505   34.332899
H    27.721095   29.819505   34.125899
C    29.111095   31.258505   33.294899
H    28.667095   31.324505   32.304899
C    30.187096   32.144505   33.495899
C    30.670096   33.068506   32.435899
H    30.109096   33.090506   31.499899
H    30.731096   34.097506   32.796899
H    31.662096   32.709506   32.154899
