16        
Initial atomic coordinates
O    32.565596   31.880505   35.384399
H    33.024596   32.604506   34.924399
C    32.309596   30.791505   34.621399
C    31.891596   29.610505   35.275399
H    31.919596   29.587505   36.361399
C    31.544596   28.506505   34.484399
H    31.151596   27.615505   34.968399
C    31.504596   28.627505   33.080399
H    31.139596   27.790505   32.490399
C    31.875596   29.785505   32.438399
H    31.884596   29.956505   31.364399
C    32.312596   30.847505   33.239399
C    32.668596   32.104505   32.501399
H    33.732596   32.003505   32.275399
H    32.106596   32.090505   31.565399
H    32.428596   33.013506   33.056399
