16        
Initial atomic coordinates
O    31.930096   32.449006   33.216399
H    32.820096   32.435006   33.612399
C    31.192096   31.569005   33.886399
C    31.342096   31.429005   35.260399
H    32.048096   32.029005   35.829399
C    30.710096   30.412005   35.976399
H    30.873096   30.353005   37.049399
C    29.713096   29.661005   35.376399
H    29.080095   29.001005   35.962399
C    29.464096   29.884005   33.972399
H    28.616095   29.430005   33.464399
C    30.214096   30.837005   33.261399
C    29.750096   31.192005   31.906399
H    28.776095   31.680005   31.992399
H    30.441096   31.857005   31.384399
H    29.691096   30.271005   31.323399
