16        
Initial atomic coordinates
O    30.860096   34.367006   34.404399
H    31.757096   34.735006   34.304399
C    30.934096   32.987006   34.338399
C    30.362096   32.282005   35.408399
H    29.988096   32.954006   36.174399
C    30.384096   30.914005   35.456399
H    29.868096   30.336005   36.217399
C    30.944096   30.215005   34.406399
H    30.866096   29.133005   34.364399
C    31.560096   30.882005   33.355399
H    31.956096   30.355005   32.491399
C    31.506096   32.311005   33.286399
C    31.929096   33.056006   32.074399
H    32.441096   32.370006   31.397399
H    31.070096   33.484006   31.553399
H    32.524096   33.830006   32.566399
