16        
Initial atomic coordinates
O    32.816596   31.840005   33.296399
H    33.466596   32.412006   33.742399
C    31.896596   31.399005   34.184399
C    32.354596   31.238005   35.484399
H    33.274596   31.731005   35.787399
C    31.489596   30.627005   36.450399
H    31.804596   30.465005   37.478399
C    30.283596   30.033005   36.015399
H    29.625596   29.544005   36.730399
C    29.806596   30.175005   34.685399
H    28.827595   29.835005   34.359399
C    30.660596   30.860005   33.741399
C    30.111596   31.114005   32.365399
H    30.820596   31.681005   31.758399
H    29.968596   30.118005   31.943399
H    29.183595   31.689005   32.365399
