16        
Initial atomic coordinates
O    32.098096   32.611006   34.477399
H    32.517096   33.191006   33.817399
C    31.165096   31.873005   33.847399
C    30.734096   30.700005   34.439399
H    31.090096   30.546005   35.454399
C    29.740096   29.926005   33.854399
H    29.230095   29.124005   34.381399
C    29.199095   30.351005   32.632399
H    28.337095   29.763005   32.326399
C    29.558096   31.581005   32.091399
H    29.031095   31.921005   31.204399
C    30.571096   32.348006   32.680399
C    30.960096   33.646006   32.054399
H    31.818096   33.458006   31.407399
H    30.150096   34.050006   31.443399
H    31.217096   34.364006   32.836399
