16        
Initial atomic coordinates
O    32.459596   32.095005   35.676899
H    32.971596   32.587006   35.008899
C    31.331596   31.455005   35.296899
C    30.760596   30.512005   36.139899
H    31.168596   30.468005   37.146899
C    29.654596   29.770005   35.680899
H    29.227595   28.996005   36.314899
C    29.185595   30.004005   34.373899
H    28.349595   29.424005   33.991899
C    29.814596   30.942005   33.541899
H    29.667596   30.931005   32.464899
C    30.901596   31.658005   34.061899
C    31.634596   32.679006   33.169899
H    31.509596   33.639006   33.673899
H    32.682596   32.369006   33.167899
H    31.301596   32.765006   32.133899
