16        
Initial atomic coordinates
O    34.366096   30.455005   33.556899
H    34.612096   31.397005   33.498899
C    32.980096   30.495005   33.601899
C    32.319096   29.420005   34.027899
H    32.954096   28.548005   34.166899
C    30.928096   29.387005   34.079899
H    30.426096   28.593005   34.625899
C    30.206096   30.546005   33.795899
H    29.134095   30.598005   33.971899
C    30.919096   31.648005   33.289899
H    30.392096   32.560006   33.021899
C    32.282096   31.586005   33.046899
C    32.969096   32.746006   32.321899
H    33.109096   32.435006   31.284899
H    32.226096   33.544006   32.377899
H    33.887096   33.092006   32.802899
