16        
Initial atomic coordinates
O    32.826096   32.452006   34.647899
H    33.261096   33.182006   34.171899
C    31.517096   32.361006   34.332899
C    30.640096   31.632005   35.202899
H    31.130096   31.459005   36.156899
C    29.296095   31.289005   34.799899
H    28.682095   30.718005   35.491899
C    28.861095   31.623005   33.532899
H    27.846095   31.329005   33.282899
C    29.708096   32.324006   32.695899
H    29.294095   32.588006   31.725899
C    30.992096   32.725006   33.083899
C    31.858096   33.615006   32.172899
H    32.865096   33.192006   32.188899
H    31.496096   33.472006   31.152899
H    31.781096   34.638006   32.545899
