16        
Initial atomic coordinates
O    33.200596   31.998505   32.527899
H    33.920596   32.470506   32.983899
C    32.293596   31.434505   33.363899
C    32.730596   31.088505   34.646899
H    33.796596   31.234505   34.799899
C    31.873596   30.639505   35.545899
H    32.318596   30.278505   36.469899
C    30.491596   30.525505   35.279899
H    29.819596   30.197505   36.068899
C    30.041596   30.878505   34.005899
H    28.959595   30.838505   33.913899
C    30.965596   31.456505   33.099899
C    30.318596   31.883505   31.755899
H    31.051596   32.365506   31.105899
H    29.897596   31.026505   31.224899
H    29.534596   32.618506   31.944899
