16        
Initial atomic coordinates
O    32.191596   31.160005   34.853399
H    32.606596   31.952005   34.468399
C    30.807596   31.159005   34.681399
C    30.032596   30.191005   35.385399
H    30.540596   29.535005   36.088399
C    28.718595   30.088005   35.153399
H    28.121595   29.363005   35.700399
C    28.123595   30.998005   34.360399
H    27.055595   30.813005   34.279399
C    28.783595   31.981005   33.688399
H    28.317595   32.660006   32.979399
C    30.198596   32.075005   33.831399
C    31.025596   33.119006   33.071399
H    30.400596   33.841006   32.543399
H    31.615596   33.698006   33.785399
H    31.692596   32.602006   32.377399
