16        
Initial atomic coordinates
O    31.964096   33.882506   31.955899
H    32.860096   33.877506   32.335899
C    31.104096   33.057506   32.654899
C    31.545096   32.646506   33.903899
H    32.489096   32.973506   34.333899
C    30.752096   31.802505   34.633899
H    30.820096   31.484505   35.671899
C    29.542096   31.401505   34.125899
H    28.914095   30.716505   34.686899
C    29.085095   31.774505   32.846899
H    28.107095   31.444505   32.507899
C    29.782096   32.738506   32.126899
C    29.361095   33.220506   30.778899
H    28.640095   34.035506   30.879899
H    30.190096   33.601506   30.180899
H    28.966095   32.367506   30.222899
