16        
Initial atomic coordinates
O    32.949096   32.061005   33.004899
H    33.717096   32.540006   33.362899
C    32.183096   31.245005   33.833899
C    32.670096   30.732005   34.991899
H    33.633096   31.059005   35.371899
C    31.894096   29.951005   35.891899
H    32.288096   29.642005   36.855899
C    30.559096   29.756005   35.617899
H    29.909096   29.289005   36.353899
C    30.048096   30.146005   34.367899
H    29.018095   29.893005   34.128899
C    30.859096   30.938005   33.495899
C    30.203096   31.401005   32.192899
H    29.591096   32.299005   32.296899
H    30.952096   31.597005   31.422899
H    29.544096   30.605005   31.839899
