16        
Initial atomic coordinates
O    33.477096   31.660005   34.452899
H    33.962096   32.277006   33.875899
C    32.171096   31.652005   33.984899
C    31.199096   30.881005   34.617899
H    31.473096   30.285005   35.484899
C    29.951096   30.763005   34.082899
H    29.275095   30.024005   34.507899
C    29.618096   31.488005   32.962899
H    28.609095   31.450005   32.560899
C    30.508096   32.465006   32.440899
H    30.264096   33.023006   31.539899
C    31.764096   32.517006   32.927899
C    32.759096   33.473006   32.398899
H    32.296096   34.154006   31.681899
H    33.066096   34.057006   33.268899
H    33.477096   32.885006   31.821899
