16        
Initial atomic coordinates
O    32.437596   32.817506   35.668399
H    32.777596   33.363506   34.938399
C    31.549596   31.852505   35.331399
C    30.995596   31.198505   36.398399
H    31.353596   31.427505   37.399399
C    29.973596   30.261505   36.211399
H    29.505596   29.856505   37.104399
C    29.549596   30.091505   34.892399
H    28.782595   29.337505   34.736399
C    30.098596   30.782505   33.767399
H    29.804596   30.550505   32.748399
C    31.203596   31.629505   33.965399
C    31.792596   32.270506   32.749399
H    31.989596   33.305506   33.036399
H    32.768596   31.895505   32.436399
H    31.062596   32.196505   31.941399
