16        
Initial atomic coordinates
O    33.494096   33.608006   33.176899
H    34.391096   33.767006   33.524899
C    32.709096   32.813006   33.982899
C    33.213096   32.352006   35.168899
H    34.188096   32.696006   35.503899
C    32.371096   31.578005   36.053899
H    32.706096   31.249005   37.034899
C    31.055096   31.245005   35.631899
H    30.391096   30.630005   36.232899
C    30.674096   31.548005   34.326899
H    29.681096   31.173005   34.091899
C    31.496096   32.326006   33.508899
C    30.881096   32.738006   32.190899
H    30.074096   33.473006   32.220899
H    31.581096   33.034006   31.406899
H    30.528096   31.818005   31.717899
