16        
Initial atomic coordinates
O    30.566596   32.365506   34.774399
H    31.520596   32.318506   34.583399
C    30.229596   31.109505   35.054399
C    29.442596   30.862505   36.186399
H    29.137595   31.724505   36.772399
C    29.106595   29.578505   36.525399
H    28.491595   29.481505   37.416399
C    29.585596   28.454505   35.773399
H    29.282595   27.459505   36.089399
C    30.345596   28.744505   34.569399
H    30.595596   27.962505   33.856399
C    30.551596   30.092505   34.164399
C    31.371596   30.196505   32.877399
H    32.432596   30.172505   33.134399
H    31.221596   29.339505   32.218399
H    31.096596   31.069505   32.282399
