16        
Initial atomic coordinates
O    33.299096   33.387506   32.137899
H    34.184096   33.371506   32.541899
C    32.625096   32.521506   32.949899
C    33.231096   32.111505   34.122899
H    34.259096   32.447506   34.237899
C    32.536096   31.230505   34.964899
H    33.065096   30.829505   35.824899
C    31.210096   30.874505   34.684899
H    30.680096   30.144505   35.291899
C    30.574096   31.306505   33.522899
H    29.608096   30.940505   33.187899
C    31.317096   32.107505   32.605899
C    30.626096   32.535506   31.336899
H    29.864096   33.247506   31.661899
H    31.220096   33.045506   30.576899
H    30.135096   31.686505   30.854899
