16        
Initial atomic coordinates
O    33.088096   31.516005   34.933899
H    33.580096   32.141005   34.373899
C    32.000096   31.096005   34.234899
C    31.218096   30.167005   34.904899
H    31.582096   29.735005   35.833899
C    29.948096   29.700005   34.416899
H    29.354095   28.974005   34.965899
C    29.516096   30.179005   33.160899
H    28.529095   29.975005   32.752899
C    30.310096   31.185005   32.556899
H    29.954096   31.531005   31.588899
C    31.533096   31.581005   33.038899
C    32.165096   32.705006   32.351899
H    33.203096   32.548006   32.050899
H    31.602096   33.025006   31.472899
H    32.184096   33.543006   33.050899
