16        
Initial atomic coordinates
O    33.412596   34.052506   31.794899
H    34.180596   34.149506   32.384899
C    32.651596   33.047506   32.308899
C    33.050596   32.467506   33.534899
H    34.028596   32.798506   33.875899
C    32.220596   31.708505   34.275899
H    32.587596   31.173505   35.148899
C    31.028596   31.271505   33.793899
H    30.372596   30.645505   34.393899
C    30.591596   31.795505   32.574899
H    29.600596   31.619505   32.165899
C    31.409596   32.664506   31.816899
C    30.798596   33.241506   30.545899
H    29.710596   33.277506   30.630899
H    31.208596   34.191506   30.193899
H    31.086596   32.577506   29.728899
