16        
Initial atomic coordinates
O    32.158596   30.955505   33.411399
H    32.879596   31.393505   33.898399
C    31.319596   30.378505   34.310399
C    31.748596   30.397505   35.611399
H    32.738596   30.745505   35.897399
C    30.968596   29.926505   36.641399
H    31.331596   29.923505   37.666399
C    29.615596   29.616505   36.385399
H    28.989595   29.307505   37.218399
C    29.144595   29.601505   35.043399
H    28.121595   29.353505   34.770399
C    30.032596   29.905505   33.948399
C    29.554596   30.052505   32.538399
H    30.323596   30.056505   31.764399
H    28.874595   29.270505   32.192399
H    28.932595   30.924505   32.327399
