16        
Initial atomic coordinates
O    32.853096   30.933505   35.398399
H    33.136096   31.560505   34.709399
C    31.706096   30.302505   35.009399
C    30.969096   29.564505   35.934399
H    31.214096   29.484505   36.989399
C    29.933096   28.689505   35.498399
H    29.390095   28.118505   36.248399
C    29.588096   28.617505   34.163399
H    28.781095   28.020505   33.747399
C    30.384096   29.414505   33.278399
H    29.990096   29.357505   32.267399
C    31.386096   30.297505   33.668399
C    32.023096   31.325505   32.706399
H    33.109096   31.227505   32.754399
H    31.638096   31.171505   31.695399
H    31.751096   32.290505   33.141399
