16        
Initial atomic coordinates
O    32.945096   32.985006   32.482899
H    33.610096   33.224006   33.152899
C    32.107096   32.207005   33.167899
C    32.492096   31.690005   34.405899
H    33.466096   31.873005   34.853899
C    31.627096   30.810005   35.040899
H    31.894096   30.339005   35.983899
C    30.355096   30.531005   34.501899
H    29.786096   29.791005   35.058899
C    29.957096   31.031005   33.234899
H    29.028095   30.684005   32.790899
C    30.847096   31.848005   32.580899
C    30.453096   32.307006   31.156899
H    29.417096   32.060005   30.917899
H    30.638096   33.383006   31.132899
H    31.113096   31.785005   30.459899
