16        
Initial atomic coordinates
O    32.227096   31.313505   36.534899
H    32.502096   32.178505   36.181899
C    30.892096   30.924505   36.417899
C    30.429096   29.973505   37.316899
H    31.034096   29.627505   38.149899
C    29.208095   29.358505   37.070899
H    28.950095   28.564505   37.766899
C    28.355095   29.796505   36.119899
H    27.435095   29.236505   35.980899
C    28.718095   30.851505   35.281899
H    28.089095   31.150505   34.445899
C    30.011096   31.402505   35.497899
C    30.583096   32.283506   34.339899
H    31.297096   31.695505   33.759899
H    29.799096   32.546506   33.626899
H    30.920096   33.215506   34.798899
