15        
Initial atomic coordinates
O    32.649492   29.652531   32.563107
H    33.082492   30.479531   32.836107
C    31.837492   29.115531   33.460107
C    31.499492   27.754531   33.406107
H    31.880492   27.181531   32.565107
C    30.685492   27.185531   34.370107
H    30.368492   26.152531   34.250107
C    30.130492   27.980531   35.348108
H    29.365492   27.569531   36.003108
C    30.418492   29.305531   35.453108
H    29.923492   29.929531   36.192108
C    31.372492   29.889531   34.538107
N    31.743492   31.196531   34.742107
H    31.670492   31.575531   35.679108
H    32.566492   31.471531   34.217107
