15        
Initial atomic coordinates
O    32.190992   31.054531   32.792107
H    32.336992   31.970531   33.089107
C    31.231992   30.430531   33.535107
C    30.759992   29.089531   33.319107
H    31.210992   28.482531   32.539107
C    29.838992   28.526531   34.231107
H    29.503992   27.499531   34.118107
C    29.178992   29.373531   35.133108
H    28.452992   28.944531   35.818108
C    29.625992   30.668531   35.349108
H    29.112992   31.227531   36.128108
C    30.632992   31.226531   34.525107
N    31.151992   32.459531   34.838108
H    30.629992   33.003531   35.517108
H    31.954992   32.803531   34.325107
