15        
Initial atomic coordinates
O    32.414992   30.715031   33.228107
H    32.124992   31.641031   33.307107
C    31.665992   29.956031   34.043107
C    31.242992   28.703031   33.654107
H    31.689992   28.333031   32.734107
C    30.359992   27.946031   34.375107
H    30.037992   27.024031   33.897107
C    29.792992   28.419031   35.548108
H    29.059992   27.817031   36.080108
C    30.370992   29.636031   36.057108
H    30.027992   30.111031   36.973108
C    31.268992   30.433031   35.259108
N    31.754992   31.634031   35.778108
H    31.785992   31.823031   36.775108
H    32.486992   32.068031   35.228108
