15        
Initial atomic coordinates
O    32.618492   29.958531   33.170607
H    32.999492   30.816531   33.432607
C    31.906492   29.338531   34.156607
C    31.562492   28.055531   33.871607
H    31.800492   27.595531   32.916607
C    30.819492   27.246531   34.717607
H    30.607492   26.207531   34.481607
C    30.433492   27.813531   35.996608
H    29.883492   27.181531   36.689608
C    30.899492   29.078531   36.348608
H    30.728492   29.458531   37.352608
C    31.636492   29.839531   35.385608
N    31.989492   31.090531   35.769608
H    32.553492   31.579531   35.084608
H    32.486492   31.107531   36.653608
