15        
Initial atomic coordinates
O    33.478492   31.975031   32.889607
H    33.726492   32.828031   33.286607
C    32.521492   31.427031   33.639607
C    32.041492   30.220031   33.052607
H    32.308492   29.846031   32.065607
C    31.187492   29.444031   33.803607
H    30.810492   28.544031   33.323607
C    30.736492   29.787031   35.054608
H    30.024492   29.086031   35.481608
C    31.308492   30.874031   35.714608
H    30.999492   31.041031   36.742608
C    32.221492   31.735031   34.997608
N    32.841492   32.805031   35.613608
H    32.951492   32.655031   36.609608
H    33.526492   33.345032   35.095608
