15        
Initial atomic coordinates
O    33.851992   30.072531   33.195107
H    34.053992   30.895531   33.676107
C    33.097992   29.205531   33.997107
C    32.597992   28.024531   33.521107
H    32.908992   27.621531   32.561107
C    31.768992   27.204531   34.212107
H    31.331992   26.291531   33.819107
C    31.343992   27.612531   35.454108
H    30.585992   27.036531   35.981108
C    31.830992   28.791531   35.998108
H    31.530992   29.094531   36.999108
C    32.752992   29.589531   35.272108
N    33.327992   30.633531   35.871108
H    33.962992   31.242531   35.368108
H    33.411992   30.622531   36.881108
