15        
Initial atomic coordinates
O    33.567992   30.107031   32.342607
H    33.787992   31.012031   32.624607
C    32.759992   29.458031   33.241607
C    32.460992   28.120031   33.030607
H    32.854992   27.629031   32.142607
C    31.505992   27.470031   33.783607
H    31.218992   26.477031   33.449607
C    30.886992   28.098031   34.877608
H    30.068992   27.589031   35.379608
C    31.231992   29.382031   35.177608
H    30.991992   29.826031   36.140608
C    32.122992   30.097031   34.316607
N    32.483992   31.301031   34.737607
H    32.471992   31.459031   35.739608
H    33.256992   31.773031   34.279607
