15        
Initial atomic coordinates
O    33.375992   30.233531   33.909607
H    33.639992   31.074531   34.324607
C    32.450992   29.606531   34.750607
C    32.138992   28.288531   34.575607
H    32.548992   27.785531   33.703607
C    31.329992   27.614531   35.494608
H    31.049992   26.624531   35.144608
C    30.740992   28.298531   36.567608
H    30.027992   27.762531   37.189608
C    31.146992   29.638531   36.795608
H    30.706992   30.259531   37.570608
C    31.994992   30.289531   35.906608
N    32.306992   31.607531   36.151608
H    32.037992   31.908531   37.082608
H    32.833992   32.172531   35.495608
