15        
Initial atomic coordinates
O    33.325492   29.834531   33.723607
H    33.812492   30.612531   34.048607
C    32.253492   29.476531   34.444607
C    31.629492   28.296531   34.249607
H    32.030492   27.649531   33.473607
C    30.545492   27.923531   35.021608
H    30.003492   27.047531   34.673607
C    30.170492   28.678531   36.106608
H    29.347492   28.395531   36.757608
C    30.783492   29.944531   36.336608
H    30.562492   30.518531   37.232608
C    31.863492   30.341531   35.524608
N    32.501492   31.462531   36.006608
H    32.266492   31.945531   36.866608
H    33.209492   31.937531   35.457608
