15        
Initial atomic coordinates
O    32.928492   30.054531   33.981107
H    33.202492   30.951531   34.243107
C    31.987492   29.534531   34.841108
C    31.537492   28.282531   34.499107
H    31.802492   27.840531   33.542107
C    30.549492   27.625531   35.263108
H    30.267492   26.642531   34.894108
C    30.055492   28.266531   36.383108
H    29.300492   27.744531   36.965108
C    30.629492   29.417531   36.846108
H    30.281492   29.879531   37.767108
C    31.567492   30.154531   35.997108
N    32.119492   31.294531   36.441108
H    31.964492   31.397531   37.438108
H    32.903492   31.693531   35.935108
