15        
Initial atomic coordinates
O    33.318492   32.067531   32.810107
H    33.877492   32.661531   33.340107
C    32.522492   31.421531   33.716107
C    31.701492   30.412531   33.193107
H    31.764492   30.176531   32.132107
C    30.941492   29.671531   34.107107
H    30.344492   28.795531   33.865107
C    30.883492   30.063531   35.493108
H    30.233492   29.667531   36.269108
C    31.718492   31.057531   35.951108
H    31.958492   31.196531   37.002108
C    32.566492   31.696531   35.051108
N    33.567492   32.524531   35.568108
H    34.275492   32.807531   34.900108
H    33.877492   32.358531   36.518108
