15        
Initial atomic coordinates
O    34.440992   30.798531   33.367107
H    34.774992   31.633531   33.739107
C    33.512992   30.194531   34.185107
C    32.994992   28.974531   33.900107
H    33.356992   28.420531   33.038107
C    31.965992   28.353531   34.720107
H    31.469992   27.463531   34.342107
C    31.544992   29.013531   35.863108
H    30.710992   28.696531   36.484108
C    32.075992   30.277531   36.146108
H    31.781992   30.744531   37.082108
C    33.078992   30.822531   35.398108
N    33.553992   32.001531   35.900108
H    34.216992   32.522531   35.337108
H    33.662992   32.059531   36.906108
